
OS:Version,
  {d9c11e25-294a-462e-af3f-a961103a764f}, !- Handle
  3.1.0;                                  !- Version Identifier

OS:Facility,
  {1ec25730-17ad-4490-862d-90db58adcc4e}; !- Handle

OS:Site,
  {b7b93dd6-6c4f-405b-8799-6524ed7bc95b}, !- Handle
  Buffalo Niagara Intl Ap_NY_USA,         !- Name
  42.8170218879136,                       !- Latitude {deg}
  -78.8491529713029,                      !- Longitude {deg}
  -5,                                     !- Time Zone {hr}
  215,                                    !- Elevation {m}
  City;                                   !- Terrain

OS:SimulationControl,
  {f854d312-f8fd-49f8-ac4a-11aa2b559f83}, !- Handle
  ,                                       !- Do Zone Sizing Calculation
  ,                                       !- Do System Sizing Calculation
  ,                                       !- Do Plant Sizing Calculation
  Yes,                                    !- Run Simulation for Sizing Periods
  No,                                     !- Run Simulation for Weather File Run Periods
  ,                                       !- Loads Convergence Tolerance Value {W}
  ,                                       !- Temperature Convergence Tolerance Value {deltaC}
  ,                                       !- Solar Distribution
  ,                                       !- Maximum Number of Warmup Days
  ,                                       !- Minimum Number of Warmup Days
  Yes,                                    !- Do HVAC Sizing Simulation for Sizing Periods
  1;                                      !- Maximum Number of HVAC Sizing Simulation Passes

OS:Sizing:Parameters,
  {3ea7cb3a-5954-427d-82c0-08c7a3197573}, !- Handle
  1.25,                                   !- Heating Sizing Factor
  1.15;                                   !- Cooling Sizing Factor

OS:Timestep,
  {22dea91b-075e-40fd-84d7-b507f873ee8b}, !- Handle
  1;                                      !- Number of Timesteps per Hour

OS:ShadowCalculation,
  {74cdca42-71b6-41b6-a136-a8334ca237d7}, !- Handle
  PolygonClipping,                        !- Shading Calculation Method
  ,                                       !- Shading Calculation Update Frequency Method
  20,                                     !- Shading Calculation Update Frequency
  15000,                                  !- Maximum Figures in Shadow Overlap Calculations
  ,                                       !- Polygon Clipping Algorithm
  512,                                    !- Pixel Counting Resolution
  ,                                       !- Sky Diffuse Modeling Algorithm
  No,                                     !- Output External Shading Calculation Results
  No,                                     !- Disable Self-Shading Within Shading Zone Groups
  No;                                     !- Disable Self-Shading From Shading Zone Groups to Other Zones

OS:HeatBalanceAlgorithm,
  {b94ecdbd-bfce-42fe-9925-3451d17d4759}, !- Handle
  ConductionTransferFunction,             !- Algorithm
  200;                                    !- Surface Temperature Upper Limit {C}

OS:RunPeriod,
  {d691687b-29fc-4c77-9ed1-724f9fac22a4}, !- Handle
  Run Period 1,                           !- Name
  1,                                      !- Begin Month
  1,                                      !- Begin Day of Month
  12,                                     !- End Month
  31,                                     !- End Day of Month
  ,                                       !- Use Weather File Holidays and Special Days
  ,                                       !- Use Weather File Daylight Saving Period
  ,                                       !- Apply Weekend Holiday Rule
  ,                                       !- Use Weather File Rain Indicators
  ,                                       !- Use Weather File Snow Indicators
  ;                                       !- Number of Times Runperiod to be Repeated

OS:LifeCycleCost:Parameters,
  {d87d8203-b78c-4c9b-9bed-036be32e003e}, !- Handle
  ,                                       !- Analysis Type
  ,                                       !- Discounting Convention
  ,                                       !- Inflation Approach
  ,                                       !- Real Discount Rate
  ,                                       !- Nominal Discount Rate
  ,                                       !- Inflation
  ,                                       !- Base Date Month
  ,                                       !- Base Date Year
  ,                                       !- Service Date Month
  ,                                       !- Service Date Year
  ;                                       !- Length of Study Period in Years

OS:YearDescription,
  {200210c5-1ccf-4c83-913a-a12d58fd6f95}, !- Handle
  2017,                                   !- Calendar Year
  ,                                       !- Day of Week for Start Day
  ;                                       !- Is Leap Year

OS:WeatherFile,
  {3ded19ac-9af2-4544-8c4a-d88c5163ae58}, !- Handle
  Buffalo Niagara Intl Ap,                !- City
  NY,                                     !- State Province Region
  USA,                                    !- Country
  TMY3,                                   !- Data Source
  725280,                                 !- WMO Number
  42.93,                                  !- Latitude {deg}
  -78.73,                                 !- Longitude {deg}
  -5,                                     !- Time Zone {hr}
  215,                                    !- Elevation {m}
  /home/ubuntu/UCI/Github/urbanopt-example-geojson-project/example_project_docker/weather/USA_NY_Buffalo-Greater.Buffalo.Intl.AP.725280_TMY3.epw, !- Url
  ;                                       !- Checksum

OS:Site:WaterMainsTemperature,
  {fa208615-4192-4b8a-a785-9dca6d6fa7ea}, !- Handle
  Correlation,                            !- Calculation Method
  ,                                       !- Temperature Schedule Name
  8.96666666666667,                       !- Annual Average Outdoor Air Temperature {C}
  26.2;                                   !- Maximum Difference In Monthly Average Outdoor Air Temperatures {deltaC}

OS:SizingPeriod:DesignDay,
  {b67fc54f-0eef-458f-ac2a-42a379b8709f}, !- Handle
  Buffalo Niagara Intl Ap Ann Clg .4% Condns DB=>MWB 1, !- Name
  30.3,                                   !- Maximum Dry-Bulb Temperature {C}
  9.3,                                    !- Daily Dry-Bulb Temperature Range {deltaC}
  21.8,                                   !- Humidity Indicating Conditions at Maximum Dry-Bulb
  98769,                                  !- Barometric Pressure {Pa}
  5.7,                                    !- Wind Speed {m/s}
  240,                                    !- Wind Direction {deg}
  0,                                      !- Sky Clearness
  0,                                      !- Rain Indicator
  0,                                      !- Snow Indicator
  21,                                     !- Day of Month
  7,                                      !- Month
  SummerDesignDay,                        !- Day Type
  0,                                      !- Daylight Saving Time Indicator
  Wetbulb,                                !- Humidity Indicating Type
  ,                                       !- Humidity Indicating Day Schedule Name
  DefaultMultipliers,                     !- Dry-Bulb Temperature Range Modifier Type
  ,                                       !- Dry-Bulb Temperature Range Modifier Schedule Name
  ASHRAETau,                              !- Solar Model Indicator
  ,                                       !- Beam Solar Day Schedule Name
  ,                                       !- Diffuse Solar Day Schedule Name
  0.462,                                  !- ASHRAE Taub {dimensionless}
  2.001;                                  !- ASHRAE Taud {dimensionless}

OS:SizingPeriod:DesignDay,
  {21918cec-4521-412e-8eb4-6bc35f4ad690}, !- Handle
  Buffalo Niagara Intl Ap Ann Clg .4% Condns WB=>MDB 1, !- Name
  27.8,                                   !- Maximum Dry-Bulb Temperature {C}
  9.3,                                    !- Daily Dry-Bulb Temperature Range {deltaC}
  23.8,                                   !- Humidity Indicating Conditions at Maximum Dry-Bulb
  98769,                                  !- Barometric Pressure {Pa}
  5.7,                                    !- Wind Speed {m/s}
  240,                                    !- Wind Direction {deg}
  0,                                      !- Sky Clearness
  0,                                      !- Rain Indicator
  0,                                      !- Snow Indicator
  21,                                     !- Day of Month
  7,                                      !- Month
  SummerDesignDay,                        !- Day Type
  0,                                      !- Daylight Saving Time Indicator
  Wetbulb,                                !- Humidity Indicating Type
  ,                                       !- Humidity Indicating Day Schedule Name
  DefaultMultipliers,                     !- Dry-Bulb Temperature Range Modifier Type
  ,                                       !- Dry-Bulb Temperature Range Modifier Schedule Name
  ASHRAETau,                              !- Solar Model Indicator
  ,                                       !- Beam Solar Day Schedule Name
  ,                                       !- Diffuse Solar Day Schedule Name
  0.462,                                  !- ASHRAE Taub {dimensionless}
  2.001;                                  !- ASHRAE Taud {dimensionless}

OS:SizingPeriod:DesignDay,
  {72353154-2851-41aa-9e1c-a663af30a5fb}, !- Handle
  Buffalo Niagara Intl Ap Ann Htg 99.6% Condns DB 1, !- Name
  -16.3,                                  !- Maximum Dry-Bulb Temperature {C}
  0,                                      !- Daily Dry-Bulb Temperature Range {deltaC}
  -16.3,                                  !- Humidity Indicating Conditions at Maximum Dry-Bulb
  98769,                                  !- Barometric Pressure {Pa}
  5.1,                                    !- Wind Speed {m/s}
  270,                                    !- Wind Direction {deg}
  0,                                      !- Sky Clearness
  0,                                      !- Rain Indicator
  0,                                      !- Snow Indicator
  21,                                     !- Day of Month
  1,                                      !- Month
  WinterDesignDay,                        !- Day Type
  0,                                      !- Daylight Saving Time Indicator
  Wetbulb,                                !- Humidity Indicating Type
  ,                                       !- Humidity Indicating Day Schedule Name
  DefaultMultipliers,                     !- Dry-Bulb Temperature Range Modifier Type
  ,                                       !- Dry-Bulb Temperature Range Modifier Schedule Name
  ASHRAEClearSky;                         !- Solar Model Indicator

OS:ClimateZones,
  {f7a80e6a-d44e-41b9-9639-7508d2939555}, !- Handle
  ASHRAE,                                 !- Climate Zone Institution Name 1
  ANSI/ASHRAE Standard 169,               !- Climate Zone Document Name 1
  2006,                                   !- Climate Zone Document Year 1
  6A;                                     !- Climate Zone Value 1

OS:Rendering:Color,
  {cf346041-4a54-4251-9d32-78e0ff566d8f}, !- Handle
  StripMall Strip mall - type 1,          !- Name
  171,                                    !- Rendering Red Value
  222,                                    !- Rendering Green Value
  78;                                     !- Rendering Blue Value

OS:Rendering:Color,
  {b234856c-017b-4ab8-a414-90df343124c8}, !- Handle
  StripMall Strip mall - type 2,          !- Name
  171,                                    !- Rendering Red Value
  222,                                    !- Rendering Green Value
  78;                                     !- Rendering Blue Value

OS:Rendering:Color,
  {23858e19-f174-430e-9425-72b862064dc7}, !- Handle
  StripMall Strip mall - type 3,          !- Name
  171,                                    !- Rendering Red Value
  222,                                    !- Rendering Green Value
  78;                                     !- Rendering Blue Value

OS:RunPeriodControl:DaylightSavingTime,
  {0df2b58d-10bf-470e-92ec-907e05c285ab}, !- Handle
  2nd Sunday in March,                    !- Start Date
  1st Sunday in November;                 !- End Date

OS:People:Definition,
  {2845940b-4ab3-4a85-bf65-5e67910ad2fb}, !- Handle
  StripMall Strip mall - type 1 People Definition, !- Name
  People/Area,                            !- Number of People Calculation Method
  ,                                       !- Number of People {people}
  0.0861112833336778,                     !- People per Space Floor Area {person/m2}
  ,                                       !- Space Floor Area per Person {m2/person}
  0.3;                                    !- Fraction Radiant

OS:Schedule:Ruleset,
  {d9807e46-0212-4f78-9558-9e22e769cee0}, !- Handle
  Clothing Schedule,                      !- Name
  {24e78d08-2e00-4e5e-9773-f578a737a1d9}, !- Schedule Type Limits Name
  {c741e40d-a183-4db1-8e40-5db92805d896}; !- Default Day Schedule Name

OS:Schedule:Day,
  {c741e40d-a183-4db1-8e40-5db92805d896}, !- Handle
  Clothing Schedule Default Winter Clothes, !- Name
  {24e78d08-2e00-4e5e-9773-f578a737a1d9}, !- Schedule Type Limits Name
  ,                                       !- Interpolate to Timestep
  24,                                     !- Hour 1
  0,                                      !- Minute 1
  1;                                      !- Value Until Time 1

OS:Schedule:Rule,
  {14395562-2f5b-4090-a58e-c79a4023c666}, !- Handle
  Schedule Rule 1,                        !- Name
  {d9807e46-0212-4f78-9558-9e22e769cee0}, !- Schedule Ruleset Name
  0,                                      !- Rule Order
  {303b5ee3-b4ec-47bb-84b5-cbb95b091b07}, !- Day Schedule Name
  ,                                       !- Apply Sunday
  ,                                       !- Apply Monday
  ,                                       !- Apply Tuesday
  ,                                       !- Apply Wednesday
  ,                                       !- Apply Thursday
  ,                                       !- Apply Friday
  ,                                       !- Apply Saturday
  DateRange,                              !- Date Specification Type
  5,                                      !- Start Month
  1,                                      !- Start Day
  9,                                      !- End Month
  30;                                     !- End Day

OS:Schedule:Day,
  {303b5ee3-b4ec-47bb-84b5-cbb95b091b07}, !- Handle
  Clothing Schedule Summer Clothes,       !- Name
  {24e78d08-2e00-4e5e-9773-f578a737a1d9}, !- Schedule Type Limits Name
  ,                                       !- Interpolate to Timestep
  24,                                     !- Hour 1
  0,                                      !- Minute 1
  0.5;                                    !- Value Until Time 1

OS:ScheduleTypeLimits,
  {24e78d08-2e00-4e5e-9773-f578a737a1d9}, !- Handle
  ClothingInsulation,                     !- Name
  0,                                      !- Lower Limit Value
  ,                                       !- Upper Limit Value
  Continuous,                             !- Numeric Type
  ClothingInsulation;                     !- Unit Type

OS:Schedule:Ruleset,
  {728417f9-21ac-4668-8781-358e82c6af10}, !- Handle
  Air Velocity Schedule,                  !- Name
  {6e9d3d57-9e1e-4dcd-8804-653ef1e53fa0}, !- Schedule Type Limits Name
  {abc4b1eb-0475-4b66-b782-bde66e445422}; !- Default Day Schedule Name

OS:Schedule:Day,
  {abc4b1eb-0475-4b66-b782-bde66e445422}, !- Handle
  Air Velocity Schedule Default,          !- Name
  {6e9d3d57-9e1e-4dcd-8804-653ef1e53fa0}, !- Schedule Type Limits Name
  ,                                       !- Interpolate to Timestep
  24,                                     !- Hour 1
  0,                                      !- Minute 1
  0.2;                                    !- Value Until Time 1

OS:ScheduleTypeLimits,
  {6e9d3d57-9e1e-4dcd-8804-653ef1e53fa0}, !- Handle
  Velocity,                               !- Name
  0,                                      !- Lower Limit Value
  ,                                       !- Upper Limit Value
  Continuous,                             !- Numeric Type
  Velocity;                               !- Unit Type

OS:Schedule:Ruleset,
  {984f2f80-7a8f-41fe-8d68-57ff92c294f7}, !- Handle
  Work Efficiency Schedule,               !- Name
  {45437e39-136b-4565-b75d-63db8f3ab73a}, !- Schedule Type Limits Name
  {4fe2958a-fc8c-4528-accc-817c7d7a1334}; !- Default Day Schedule Name

OS:Schedule:Day,
  {4fe2958a-fc8c-4528-accc-817c7d7a1334}, !- Handle
  Work Efficiency Schedule Default,       !- Name
  {45437e39-136b-4565-b75d-63db8f3ab73a}, !- Schedule Type Limits Name
  ,                                       !- Interpolate to Timestep
  24,                                     !- Hour 1
  0,                                      !- Minute 1
  0;                                      !- Value Until Time 1

OS:ScheduleTypeLimits,
  {45437e39-136b-4565-b75d-63db8f3ab73a}, !- Handle
  Fractional,                             !- Name
  0,                                      !- Lower Limit Value
  1,                                      !- Upper Limit Value
  Continuous;                             !- Numeric Type

OS:Lights:Definition,
  {0d3b5366-a0fa-49e4-b85f-b13962c1b8d7}, !- Handle
  StripMall Strip mall - type 1 Lights Definition, !- Name
  Watts/Area,                             !- Design Level Calculation Method
  ,                                       !- Lighting Level {W}
  13.4548880208872,                       !- Watts per Space Floor Area {W/m2}
  ,                                       !- Watts per Person {W/person}
  0.7,                                    !- Fraction Radiant
  0.2,                                    !- Fraction Visible
  0;                                      !- Return Air Fraction

OS:AdditionalProperties,
  {0a9eab1c-2992-4123-bc0e-5269caf27f80}, !- Handle
  {0d3b5366-a0fa-49e4-b85f-b13962c1b8d7}, !- Object Name
  lpd_fraction_linear_fluorescent,        !- Feature Name 1
  Double,                                 !- Feature Data Type 1
  1;                                      !- Feature Value 1

OS:Lights:Definition,
  {c7a25b0c-b66d-4e94-91f8-3db2d9a92714}, !- Handle
  StripMall Strip mall - type 1 Additional Lights Definition, !- Name
  Watts/Area,                             !- Design Level Calculation Method
  ,                                       !- Lighting Level {W}
  4.12752908839151,                       !- Watts per Space Floor Area {W/m2}
  ,                                       !- Watts per Person {W/person}
  0.7,                                    !- Fraction Radiant
  0.2,                                    !- Fraction Visible
  0;                                      !- Return Air Fraction

OS:AdditionalProperties,
  {0726e086-ebe8-4d81-80d1-1e05ae3a81cc}, !- Handle
  {c7a25b0c-b66d-4e94-91f8-3db2d9a92714}, !- Object Name
  lpd_fraction_linear_fluorescent,        !- Feature Name 1
  Double,                                 !- Feature Data Type 1
  0,                                      !- Feature Value 1
  lpd_fraction_compact_fluorescent,       !- Feature Name 2
  Double,                                 !- Feature Data Type 2
  0,                                      !- Feature Value 2
  lpd_fraction_high_bay,                  !- Feature Name 3
  Double,                                 !- Feature Data Type 3
  0,                                      !- Feature Value 3
  lpd_fraction_specialty_lighting,        !- Feature Name 4
  Double,                                 !- Feature Data Type 4
  1,                                      !- Feature Value 4
  lpd_fraction_exit_lighting,             !- Feature Name 5
  Double,                                 !- Feature Data Type 5
  0;                                      !- Feature Value 5

OS:ElectricEquipment:Definition,
  {775133a1-5d1d-4bdc-9c0d-7a8c56555ba9}, !- Handle
  StripMall Strip mall - type 1 Elec Equip Definition, !- Name
  Watts/Area,                             !- Design Level Calculation Method
  ,                                       !- Design Level {W}
  4.30556416668389,                       !- Watts per Space Floor Area {W/m2}
  ,                                       !- Watts per Person {W/person}
  0,                                      !- Fraction Latent
  0.5,                                    !- Fraction Radiant
  0;                                      !- Fraction Lost

OS:DesignSpecification:OutdoorAir,
  {0cfbdada-5743-455b-b0b0-78991bfed232}, !- Handle
  StripMall Strip mall - type 1 Ventilation, !- Name
  Sum,                                    !- Outdoor Air Method
  ,                                       !- Outdoor Air Flow per Person {m3/s-person}
  0.0011811,                              !- Outdoor Air Flow per Floor Area {m3/s-m2}
  ,                                       !- Outdoor Air Flow Rate {m3/s}
  ,                                       !- Outdoor Air Flow Air Changes per Hour {1/hr}
  ;                                       !- Outdoor Air Flow Rate Fraction Schedule Name

OS:DefaultScheduleSet,
  {8475c9cd-fa16-4f2e-a512-e9d56256893e}, !- Handle
  StripMall Strip mall - type 1 Schedule Set, !- Name
  ,                                       !- Hours of Operation Schedule Name
  {0fd8f505-3d02-45b6-9960-8ddf37bc40b1}, !- Number of People Schedule Name
  {c86f9864-115c-40d1-aab6-550912db4dfd}, !- People Activity Level Schedule Name
  {68c85507-2f38-496b-9492-28837fd24466}, !- Lighting Schedule Name
  {60e93e53-161b-4ac5-b099-00c26c203f6c}, !- Electric Equipment Schedule Name
  ,                                       !- Gas Equipment Schedule Name
  ,                                       !- Hot Water Equipment Schedule Name
  {92476dbb-78e3-434f-a24d-d0ff8253b14f}, !- Infiltration Schedule Name
  ,                                       !- Steam Equipment Schedule Name
  ;                                       !- Other Equipment Schedule Name

OS:Schedule:Ruleset,
  {0fd8f505-3d02-45b6-9960-8ddf37bc40b1}, !- Handle
  RetailStripmall Type1_OCC_SCH,          !- Name
  {45437e39-136b-4565-b75d-63db8f3ab73a}, !- Schedule Type Limits Name
  {9d07f546-8f49-487f-83d1-1313d5ef2848}, !- Default Day Schedule Name
  {c8cc6ac5-00c7-4e92-aa46-353fb55b37b3}, !- Summer Design Day Schedule Name
  {181c0a0c-c61d-4a0b-99ad-1d6874dadac9}; !- Winter Design Day Schedule Name

OS:Schedule:Day,
  {9d07f546-8f49-487f-83d1-1313d5ef2848}, !- Handle
  RetailStripmall Type1_OCC_SCH Default,  !- Name
  {45437e39-136b-4565-b75d-63db8f3ab73a}, !- Schedule Type Limits Name
  ,                                       !- Interpolate to Timestep
  8,                                      !- Hour 1
  0,                                      !- Minute 1
  0,                                      !- Value Until Time 1
  10,                                     !- Hour 2
  0,                                      !- Minute 2
  0.05,                                   !- Value Until Time 2
  11,                                     !- Hour 3
  0,                                      !- Minute 3
  0.1,                                    !- Value Until Time 3
  12,                                     !- Hour 4
  0,                                      !- Minute 4
  0.2,                                    !- Value Until Time 4
  13,                                     !- Hour 5
  0,                                      !- Minute 5
  0.4,                                    !- Value Until Time 5
  14,                                     !- Hour 6
  0,                                      !- Minute 6
  0.6,                                    !- Value Until Time 6
  16,                                     !- Hour 7
  0,                                      !- Minute 7
  0.4,                                    !- Value Until Time 7
  17,                                     !- Hour 8
  0,                                      !- Minute 8
  0.3,                                    !- Value Until Time 8
  19,                                     !- Hour 9
  0,                                      !- Minute 9
  0.6,                                    !- Value Until Time 9
  21,                                     !- Hour 10
  0,                                      !- Minute 10
  0.4,                                    !- Value Until Time 10
  22,                                     !- Hour 11
  0,                                      !- Minute 11
  0.3,                                    !- Value Until Time 11
  23,                                     !- Hour 12
  0,                                      !- Minute 12
  0.2,                                    !- Value Until Time 12
  24,                                     !- Hour 13
  0,                                      !- Minute 13
  0.05;                                   !- Value Until Time 13

OS:Schedule:Rule,
  {f7d0bf6e-8829-486b-9783-2946bec74286}, !- Handle
  Schedule Rule 2,                        !- Name
  {0fd8f505-3d02-45b6-9960-8ddf37bc40b1}, !- Schedule Ruleset Name
  1,                                      !- Rule Order
  {ae26d126-172c-4fea-a30e-e03d1ed5f5b3}, !- Day Schedule Name
  ,                                       !- Apply Sunday
  Yes,                                    !- Apply Monday
  Yes,                                    !- Apply Tuesday
  Yes,                                    !- Apply Wednesday
  Yes,                                    !- Apply Thursday
  ,                                       !- Apply Friday
  ,                                       !- Apply Saturday
  DateRange,                              !- Date Specification Type
  1,                                      !- Start Month
  1,                                      !- Start Day
  12,                                     !- End Month
  31;                                     !- End Day

OS:Schedule:Day,
  {ae26d126-172c-4fea-a30e-e03d1ed5f5b3}, !- Handle
  RetailStripmall Type1_OCC_SCH Mon|Tue|Wed|Thu Day, !- Name
  {45437e39-136b-4565-b75d-63db8f3ab73a}, !- Schedule Type Limits Name
  ,                                       !- Interpolate to Timestep
  8,                                      !- Hour 1
  0,                                      !- Minute 1
  0,                                      !- Value Until Time 1
  10,                                     !- Hour 2
  0,                                      !- Minute 2
  0.05,                                   !- Value Until Time 2
  12,                                     !- Hour 3
  0,                                      !- Minute 3
  0.1,                                    !- Value Until Time 3
  13,                                     !- Hour 4
  0,                                      !- Minute 4
  0.2,                                    !- Value Until Time 4
  15,                                     !- Hour 5
  0,                                      !- Minute 5
  0.4,                                    !- Value Until Time 5
  17,                                     !- Hour 6
  0,                                      !- Minute 6
  0.25,                                   !- Value Until Time 6
  20,                                     !- Hour 7
  0,                                      !- Minute 7
  0.5,                                    !- Value Until Time 7
  23,                                     !- Hour 8
  0,                                      !- Minute 8
  0.3,                                    !- Value Until Time 8
  24,                                     !- Hour 9
  0,                                      !- Minute 9
  0.05;                                   !- Value Until Time 9

OS:Schedule:Rule,
  {ff3ae93b-0803-49aa-ba4b-c70418219140}, !- Handle
  Schedule Rule 3,                        !- Name
  {0fd8f505-3d02-45b6-9960-8ddf37bc40b1}, !- Schedule Ruleset Name
  0,                                      !- Rule Order
  {b906ef1a-c600-4d29-b75f-51753105d14e}, !- Day Schedule Name
  ,                                       !- Apply Sunday
  ,                                       !- Apply Monday
  ,                                       !- Apply Tuesday
  ,                                       !- Apply Wednesday
  ,                                       !- Apply Thursday
  Yes,                                    !- Apply Friday
  Yes,                                    !- Apply Saturday
  DateRange,                              !- Date Specification Type
  1,                                      !- Start Month
  1,                                      !- Start Day
  12,                                     !- End Month
  31;                                     !- End Day

OS:Schedule:Day,
  {b906ef1a-c600-4d29-b75f-51753105d14e}, !- Handle
  RetailStripmall Type1_OCC_SCH Sat|Fri Day, !- Name
  {45437e39-136b-4565-b75d-63db8f3ab73a}, !- Schedule Type Limits Name
  ,                                       !- Interpolate to Timestep
  1,                                      !- Hour 1
  0,                                      !- Minute 1
  0.05,                                   !- Value Until Time 1
  9,                                      !- Hour 2
  0,                                      !- Minute 2
  0,                                      !- Value Until Time 2
  10,                                     !- Hour 3
  0,                                      !- Minute 3
  0.05,                                   !- Value Until Time 3