
OS:Version,
  {4aefb799-4cf5-48bb-b1fe-24a7b71ef841}, !- Handle
  3.1.0;                                  !- Version Identifier

OS:WeatherFile,
  {093097a8-89d8-4c39-a01e-e1aa9c33f4e8}, !- Handle
  Buffalo Niagara Intl Ap,                !- City
  NY,                                     !- State Province Region
  USA,                                    !- Country
  TMY3,                                   !- Data Source
  725280,                                 !- WMO Number
  42.93,                                  !- Latitude {deg}
  -78.73,                                 !- Longitude {deg}
  -5,                                     !- Time Zone {hr}
  215,                                    !- Elevation {m}
  /home/ubuntu/UCI/Github/urbanopt-example-geojson-project/example_project_docker/run/baseline_scenario_test/14/../../../weather/USA_NY_Buffalo-Greater.Buffalo.Intl.AP.725280_TMY3.epw, !- Url
  6B50E0FF;                               !- Checksum

OS:YearDescription,
  {d7d231ea-a75c-4893-b6ca-f0e843e0938a}, !- Handle
  2017,                                   !- Calendar Year
  ,                                       !- Day of Week for Start Day
  ;                                       !- Is Leap Year

OS:Site,
  {70d627bb-c62e-4fab-a4bb-bf612223eaa0}, !- Handle
  Buffalo Niagara Intl Ap_NY_USA,         !- Name
  42.93,                                  !- Latitude {deg}
  -78.73,                                 !- Longitude {deg}
  -5,                                     !- Time Zone {hr}
  215,                                    !- Elevation {m}
  Suburbs;                                !- Terrain

OS:ClimateZones,
  {1675eac7-20a6-4bcc-a6d5-0a3499331e97}, !- Handle
  Building America,                       !- Climate Zone Institution Name 1
  ,                                       !- Climate Zone Document Name 1
  0,                                      !- Climate Zone Document Year 1
  Cold;                                   !- Climate Zone Value 1

OS:RunPeriodControl:DaylightSavingTime,
  {b3b04f71-60f4-4b70-8b71-0ec28dec77ff}, !- Handle
  Mar 12,                                 !- Start Date
  Nov 5;                                  !- End Date

OS:Site:GroundTemperature:Shallow,
  {26bd4051-28ac-470d-a5e6-3d08526c8916}, !- Handle
  4.30207395723831,                       !- January Surface Ground Temperature {C}
  2.29327249652502,                       !- February Surface Ground Temperature {C}
  2.1324004715605,                        !- March Surface Ground Temperature {C}
  3.08567940719289,                       !- April Surface Ground Temperature {C}
  6.91256312497529,                       !- May Surface Ground Temperature {C}
  10.7216195949507,                       !- June Surface Ground Temperature {C}
  14.0238679822575,                       !- July Surface Ground Temperature {C}
  16.1157611184725,                       !- August Surface Ground Temperature {C}
  16.2934789303462,                       !- September Surface Ground Temperature {C}
  14.5920754632848,                       !- October Surface Ground Temperature {C}
  11.3740363486531,                       !- November Surface Ground Temperature {C}
  7.68182621661677;                       !- December Surface Ground Temperature {C}

OS:Site:GroundTemperature:Deep,
  {53c8a77c-f870-4a02-a7e2-325f22d29e26}, !- Handle
  9.0488356164384,                        !- January Deep Ground Temperature {C}
  9.0488356164384,                        !- February Deep Ground Temperature {C}
  9.0488356164384,                        !- March Deep Ground Temperature {C}
  9.0488356164384,                        !- April Deep Ground Temperature {C}
  9.0488356164384,                        !- May Deep Ground Temperature {C}
  9.0488356164384,                        !- June Deep Ground Temperature {C}
  9.0488356164384,                        !- July Deep Ground Temperature {C}
  9.0488356164384,                        !- August Deep Ground Temperature {C}
  9.0488356164384,                        !- September Deep Ground Temperature {C}
  9.0488356164384,                        !- October Deep Ground Temperature {C}
  9.0488356164384,                        !- November Deep Ground Temperature {C}
  9.0488356164384;                        !- December Deep Ground Temperature {C}

OS:SimulationControl,
  {5cad500f-f0dd-4ee3-9a14-9d55ce20c356}, !- Handle
  ,                                       !- Do Zone Sizing Calculation
  ,                                       !- Do System Sizing Calculation
  ,                                       !- Do Plant Sizing Calculation
  No;                                     !- Run Simulation for Sizing Periods

OS:Timestep,
  {72b6aa1c-fcb2-4d2c-a2f3-68694534f9a4}, !- Handle
  1;                                      !- Number of Timesteps per Hour

OS:ShadowCalculation,
  {ae92e5e7-da8c-4200-bf08-aad3b4e23086}, !- Handle
  PolygonClipping,                        !- Shading Calculation Method
  ,                                       !- Shading Calculation Update Frequency Method
  20,                                     !- Shading Calculation Update Frequency
  200,                                    !- Maximum Figures in Shadow Overlap Calculations
  ,                                       !- Polygon Clipping Algorithm
  512,                                    !- Pixel Counting Resolution
  ,                                       !- Sky Diffuse Modeling Algorithm
  No,                                     !- Output External Shading Calculation Results
  No,                                     !- Disable Self-Shading Within Shading Zone Groups
  No;                                     !- Disable Self-Shading From Shading Zone Groups to Other Zones

OS:SurfaceConvectionAlgorithm:Outside,
  {1d8a5c61-bf63-436b-bff7-063c9d295b1c}, !- Handle
  DOE-2;                                  !- Algorithm

OS:SurfaceConvectionAlgorithm:Inside,
  {2e49d81c-b6f7-4159-84f7-03507e3ab9c0}, !- Handle
  TARP;                                   !- Algorithm

OS:ZoneCapacitanceMultiplier:ResearchSpecial,
  {81964e85-305d-4440-9dfc-131377f4571d}, !- Handle
  ,                                       !- Temperature Capacity Multiplier
  15,                                     !- Humidity Capacity Multiplier
  ;                                       !- Carbon Dioxide Capacity Multiplier

OS:ConvergenceLimits,
  {4833ba33-a414-4748-8a96-de6941a97b30}, !- Handle
  0;                                      !- Minimum System Timestep {minutes}

OS:RunPeriod,
  {454b7be8-f647-4b5d-a7aa-ed261005a047}, !- Handle
  Run Period 1,                           !- Name
  1,                                      !- Begin Month
  1,                                      !- Begin Day of Month
  12,                                     !- End Month
  31,                                     !- End Day of Month
  ,                                       !- Use Weather File Holidays and Special Days
  ,                                       !- Use Weather File Daylight Saving Period
  ,                                       !- Apply Weekend Holiday Rule
  ,                                       !- Use Weather File Rain Indicators
  ,                                       !- Use Weather File Snow Indicators
  ;                                       !- Number of Times Runperiod to be Repeated

OS:External:File,
  {bdb2fad8-556e-403b-8d66-d4576dfcbd43}, !- Handle
  External File 1,                        !- Name
  schedules.csv;                          !- File Name

OS:ThermalZone,
  {35662a10-c0c1-43eb-ae2d-b657c6cdcb0e}, !- Handle
  living space,                           !- Name
  ,                                       !- Multiplier
  ,                                       !- Ceiling Height {m}
  692.06373070848,                        !- Volume {m3}
  ,                                       !- Floor Area {m2}
  ,                                       !- Zone Inside Convection Algorithm
  ,                                       !- Zone Outside Convection Algorithm
  ,                                       !- Zone Conditioning Equipment List Name
  {8867331f-bbbe-4a5f-b984-dd56778b759f}, !- Zone Air Inlet Port List
  {6ff41d03-a847-4912-81d0-d41ae52d0e24}, !- Zone Air Exhaust Port List
  {b548cd73-8703-488a-bf53-aec15dcbbbd5}, !- Zone Air Node Name
  {e4695479-b9a6-467a-96f3-8262152702f2}, !- Zone Return Air Port List
  ,                                       !- Primary Daylighting Control Name
  ,                                       !- Fraction of Zone Controlled by Primary Daylighting Control
  ,                                       !- Secondary Daylighting Control Name
  ,                                       !- Fraction of Zone Controlled by Secondary Daylighting Control
  ,                                       !- Illuminance Map Name
  ,                                       !- Group Rendering Name
  {134566cc-f0d5-4185-a7d9-ec49192685c8}, !- Thermostat Name
  No;                                     !- Use Ideal Air Loads

OS:Node,
  {d5a15e72-8cd3-45cc-a94d-66acdd1836c9}, !- Handle
  Node 1,                                 !- Name
  {b548cd73-8703-488a-bf53-aec15dcbbbd5}, !- Inlet Port
  ;                                       !- Outlet Port

OS:Connection,
  {b548cd73-8703-488a-bf53-aec15dcbbbd5}, !- Handle
  {2803d732-a981-499f-9154-f474c6266b6e}, !- Name
  {35662a10-c0c1-43eb-ae2d-b657c6cdcb0e}, !- Source Object
  11,                                     !- Outlet Port
  {d5a15e72-8cd3-45cc-a94d-66acdd1836c9}, !- Target Object
  2;                                      !- Inlet Port

OS:PortList,
  {8867331f-bbbe-4a5f-b984-dd56778b759f}, !- Handle
  {3dd428b9-5bc3-41d3-97ea-f0488027e27a}, !- Name
  {35662a10-c0c1-43eb-ae2d-b657c6cdcb0e}, !- HVAC Component
  {c02622db-c921-458e-80c0-a096be0923f3}, !- Port 1
  {53fb2978-cc25-4d2c-8b48-df161750d94b}; !- Port 2

OS:PortList,
  {6ff41d03-a847-4912-81d0-d41ae52d0e24}, !- Handle
  {dc1490f4-5dde-4024-92d5-19eee2d1f4f1}, !- Name
  {35662a10-c0c1-43eb-ae2d-b657c6cdcb0e}, !- HVAC Component
  {d6038e6b-9770-4866-a7c9-09f1d144fb46}; !- Port 1

OS:PortList,
  {e4695479-b9a6-467a-96f3-8262152702f2}, !- Handle
  {58dd379a-5c35-480e-96fc-b5a45537f168}, !- Name
  {35662a10-c0c1-43eb-ae2d-b657c6cdcb0e}, !- HVAC Component
  {a5a281db-98f2-454d-bd36-80ef3d069dac}; !- Port 1

OS:Sizing:Zone,
  {59fcb52f-ed93-4c7a-ae56-8ded7aa47b8e}, !- Handle
  {35662a10-c0c1-43eb-ae2d-b657c6cdcb0e}, !- Zone or ZoneList Name
  SupplyAirTemperature,                   !- Zone Cooling Design Supply Air Temperature Input Method
  14,                                     !- Zone Cooling Design Supply Air Temperature {C}
  11.11,                                  !- Zone Cooling Design Supply Air Temperature Difference {deltaC}
  SupplyAirTemperature,                   !- Zone Heating Design Supply Air Temperature Input Method
  40,                                     !- Zone Heating Design Supply Air Temperature {C}
  11.11,                                  !- Zone Heating Design Supply Air Temperature Difference {deltaC}
  0.0085,                                 !- Zone Cooling Design Supply Air Humidity Ratio {kg-H2O/kg-air}
  0.008,                                  !- Zone Heating Design Supply Air Humidity Ratio {kg-H2O/kg-air}
  ,                                       !- Zone Heating Sizing Factor
  ,                                       !- Zone Cooling Sizing Factor
  DesignDay,                              !- Cooling Design Air Flow Method
  ,                                       !- Cooling Design Air Flow Rate {m3/s}
  ,                                       !- Cooling Minimum Air Flow per Zone Floor Area {m3/s-m2}
  ,                                       !- Cooling Minimum Air Flow {m3/s}
  ,                                       !- Cooling Minimum Air Flow Fraction
  DesignDay,                              !- Heating Design Air Flow Method
  ,                                       !- Heating Design Air Flow Rate {m3/s}
  ,                                       !- Heating Maximum Air Flow per Zone Floor Area {m3/s-m2}
  ,                                       !- Heating Maximum Air Flow {m3/s}
  ,                                       !- Heating Maximum Air Flow Fraction
  No,                                     !- Account for Dedicated Outdoor Air System
  NeutralSupplyAir,                       !- Dedicated Outdoor Air System Control Strategy
  autosize,                               !- Dedicated Outdoor Air Low Setpoint Temperature for Design {C}
  autosize;                               !- Dedicated Outdoor Air High Setpoint Temperature for Design {C}

OS:ZoneHVAC:EquipmentList,
  {b7d55773-d7ec-494c-816c-35ea7853c7ff}, !- Handle
  Zone HVAC Equipment List 1,             !- Name
  {35662a10-c0c1-43eb-ae2d-b657c6cdcb0e}, !- Thermal Zone
  ,                                       !- Load Distribution Scheme
  {3df14808-7085-429b-b578-6995987fa925}, !- Zone Equipment 1
  1,                                      !- Zone Equipment Cooling Sequence 1
  1,                                      !- Zone Equipment Heating or No-Load Sequence 1
  {cbfd853a-f792-4e19-81c1-233a201c7b52}, !- Zone Equipment Sequential Cooling Fraction Schedule Name 1
  {c8e3a43a-ac65-45de-9a13-f2c06c450614}, !- Zone Equipment Sequential Heating Fraction Schedule Name 1
  {b3d19bcc-d84a-4fe1-8a11-bcf55350ea35}, !- Zone Equipment 2
  2,                                      !- Zone Equipment Cooling Sequence 2
  2,                                      !- Zone Equipment Heating or No-Load Sequence 2
  {249e31ce-6dc8-43c6-b6a7-a670bf065c4d}, !- Zone Equipment Sequential Cooling Fraction Schedule Name 2
  {c91a576d-f9bc-4ac7-a643-14b3f161bf7c}; !- Zone Equipment Sequential Heating Fraction Schedule Name 2

OS:Space,
  {f96e0e0e-4640-4301-a196-29290c552b5b}, !- Handle
  living space,                           !- Name
  {b62c288a-fec5-4025-beac-cdf1ddd3f6cf}, !- Space Type Name
  ,                                       !- Default Construction Set Name
  ,                                       !- Default Schedule Set Name
  ,                                       !- Direction of Relative North {deg}
  ,                                       !- X Origin {m}
  ,                                       !- Y Origin {m}
  ,                                       !- Z Origin {m}
  ,                                       !- Building Story Name
  {35662a10-c0c1-43eb-ae2d-b657c6cdcb0e}; !- Thermal Zone Name

OS:SpaceType,
  {b62c288a-fec5-4025-beac-cdf1ddd3f6cf}, !- Handle
  Space Type 1,                           !- Name
  ,                                       !- Default Construction Set Name
  ,                                       !- Default Schedule Set Name
  ,                                       !- Group Rendering Name
  ,                                       !- Design Specification Outdoor Air Object Name
  ,                                       !- Standards Template
  ,                                       !- Standards Building Type
  living space;                           !- Standards Space Type

OS:Schedule:Ruleset,
  {4e08fdbc-dbe5-4aef-8b7f-706a93ab2578}, !- Handle
  heating season,                         !- Name
  {8aa34aeb-e389-4f35-943f-93b1e0e7668c}, !- Schedule Type Limits Name
  {b9ceff1a-ba1c-40c8-84f0-74a510fc247d}; !- Default Day Schedule Name

OS:Schedule:Day,
  {b9ceff1a-ba1c-40c8-84f0-74a510fc247d}, !- Handle
  Schedule Day 1,                         !- Name
  {8aa34aeb-e389-4f35-943f-93b1e0e7668c}, !- Schedule Type Limits Name
  ,                                       !- Interpolate to Timestep
  24,                                     !- Hour 1
  0,                                      !- Minute 1
  0;                                      !- Value Until Time 1

OS:Schedule:Rule,
  {a1c69a84-bcd7-4a66-9b1b-241305a9fa45}, !- Handle
  heating season allday ruleset1,         !- Name
  {4e08fdbc-dbe5-4aef-8b7f-706a93ab2578}, !- Schedule Ruleset Name
  0,                                      !- Rule Order
  {538c1860-7a38-42d3-951b-2462d0db37f9}, !- Day Schedule Name
  Yes,                                    !- Apply Sunday
  Yes,                                    !- Apply Monday
  Yes,                                    !- Apply Tuesday
  Yes,                                    !- Apply Wednesday
  Yes,                                    !- Apply Thursday
  Yes,                                    !- Apply Friday
  Yes,                                    !- Apply Saturday
  DateRange,                              !- Date Specification Type
  1,                                      !- Start Month
  1,                                      !- Start Day
  12,                                     !- End Month
  31;                                     !- End Day

OS:Schedule:Day,
  {538c1860-7a38-42d3-951b-2462d0db37f9}, !- Handle
  heating season allday1,                 !- Name
  {8aa34aeb-e389-4f35-943f-93b1e0e7668c}, !- Schedule Type Limits Name
  ,                                       !- Interpolate to Timestep
  24,                                     !- Hour 1
  0,                                      !- Minute 1
  1;                                      !- Value Until Time 1

OS:ScheduleTypeLimits,
  {8aa34aeb-e389-4f35-943f-93b1e0e7668c}, !- Handle
  OnOff,                                  !- Name
  0,                                      !- Lower Limit Value
  1,                                      !- Upper Limit Value
  Discrete;                               !- Numeric Type

OS:Schedule:Ruleset,
  {966056e7-3e00-4444-b1e1-e0ee57da3c77}, !- Handle
  cooling season,                         !- Name
  {8aa34aeb-e389-4f35-943f-93b1e0e7668c}, !- Schedule Type Limits Name
  {4e31f6c3-2fbc-40d8-918d-d13f08bc1c66}; !- Default Day Schedule Name

OS:Schedule:Day,
  {4e31f6c3-2fbc-40d8-918d-d13f08bc1c66}, !- Handle
  Schedule Day 2,                         !- Name
  {8aa34aeb-e389-4f35-943f-93b1e0e7668c}, !- Schedule Type Limits Name
  ,                                       !- Interpolate to Timestep
  24,                                     !- Hour 1
  0,                                      !- Minute 1
  0;                                      !- Value Until Time 1

OS:Schedule:Rule,
  {dde6ffc1-9071-4da9-917d-7ce8e34fe5c2}, !- Handle
  cooling season allday ruleset1,         !- Name
  {966056e7-3e00-4444-b1e1-e0ee57da3c77}, !- Schedule Ruleset Name
  0,                                      !- Rule Order
  {b9931a26-c61f-4eda-9e29-5830b36a1108}, !- Day Schedule Name
  Yes,                                    !- Apply Sunday
  Yes,                                    !- Apply Monday
  Yes,                                    !- Apply Tuesday
  Yes,                                    !- Apply Wednesday
  Yes,                                    !- Apply Thursday
  Yes,                                    !- Apply Friday
  Yes,                                    !- Apply Saturday
  DateRange,                              !- Date Specification Type
  1,                                      !- Start Month
  1,                                      !- Start Day
  12,                                     !- End Month
  31;                                     !- End Day

OS:Schedule:Day,
  {b9931a26-c61f-4eda-9e29-5830b36a1108}, !- Handle
  cooling season allday1,                 !- Name
  {8aa34aeb-e389-4f35-943f-93b1e0e7668c}, !- Schedule Type Limits Name
  ,                                       !- Interpolate to Timestep
  24,                                     !- Hour 1
  0,                                      !- Minute 1
  1;                                      !- Value Until Time 1

OS:Schedule:Ruleset,
  {f7ab3255-ddd3-4603-b69f-4ab4b4f7d1e8}, !- Handle
  heating setpoint,                       !- Name
  {05213501-bed5-4b58-b51e-8281eb8761d6}, !- Schedule Type Limits Name
  {3b301f05-a0a6-4111-ad60-daa062cc858d}; !- Default Day Schedule Name

OS:Schedule:Day,
  {3b301f05-a0a6-4111-ad60-daa062cc858d}, !- Handle
  Schedule Day 3,                         !- Name
  {05213501-bed5-4b58-b51e-8281eb8761d6}, !- Schedule Type Limits Name
  ,                                       !- Interpolate to Timestep
  24,                                     !- Hour 1
  0,                                      !- Minute 1
  0;                                      !- Value Until Time 1

OS:Schedule:Rule,
  {eb37cdc2-a7eb-45fd-9b1e-b6e40140531f}, !- Handle
  heating setpoint allday ruleset1,       !- Name
  {f7ab3255-ddd3-4603-b69f-4ab4b4f7d1e8}, !- Schedule Ruleset Name
  0,                                      !- Rule Order
  {5e4a2a88-6794-4403-89cc-059eba60558e}, !- Day Schedule Name
  Yes,                                    !- Apply Sunday
  Yes,                                    !- Apply Monday
  Yes,                                    !- Apply Tuesday
  Yes,                                    !- Apply Wednesday
  Yes,                                    !- Apply Thursday
  Yes,                                    !- Apply Friday
  Yes,                                    !- Apply Saturday
  DateRange,                              !- Date Specification Type
  1,                                      !- Start Month
  1,                                      !- Start Day
  12,                                     !- End Month
  31;                                     !- End Day

OS:Schedule:Day,
  {5e4a2a88-6794-4403-89cc-059eba60558e}, !- Handle
  heating setpoint allday1,               !- Name
  {05213501-bed5-4b58-b51e-8281eb8761d6}, !- Schedule Type Limits Name
  ,                                       !- Interpolate to Timestep
  24,                                     !- Hour 1
  0,                                      !- Minute 1
  21.6666666666667;                       !- Value Until Time 1

OS:Schedule:Ruleset,
  {e2af3761-fa92-4301-a48f-d5a46179e268}, !- Handle
  cooling setpoint,                       !- Name
  {05213501-bed5-4b58-b51e-8281eb8761d6}, !- Schedule Type Limits Name
  {6d17cda3-b1c1-436f-90e9-9228d001728c}; !- Default Day Schedule Name

OS:Schedule:Day,
  {6d17cda3-b1c1-436f-90e9-9228d001728c}, !- Handle
  Schedule Day 4,                         !- Name
  {05213501-bed5-4b58-b51e-8281eb8761d6}, !- Schedule Type Limits Name
  ,                                       !- Interpolate to Timestep
  24,                                     !- Hour 1
  0,                                      !- Minute 1
  0;                                      !- Value Until Time 1

OS:Schedule:Rule,
  {0d5eee2b-f4c1-4798-aed6-3073dae87d5d}, !- Handle
  cooling setpoint allday ruleset1,       !- Name
  {e2af3761-fa92-4301-a48f-d5a46179e268}, !- Schedule Ruleset Name
  2,                                      !- Rule Order
  {0034e9eb-9f50-482e-ade6-9476861d0769}, !- Day Schedule Name
  Yes,                                    !- Apply Sunday
  Yes,                                    !- Apply Monday
  Yes,                                    !- Apply Tuesday
  Yes,                                    !- Apply Wednesday
  Yes,                                    !- Apply Thursday
  Yes,                                    !- Apply Friday
  Yes,                                    !- Apply Saturday
  DateRange,                              !- Date Specification Type
  1,                                      !- Start Month
  1,                                      !- Start Day
  5,                                      !- End Month
  31;                                     !- End Day

OS:Schedule:Day,
  {0034e9eb-9f50-482e-ade6-9476861d0769}, !- Handle
  cooling setpoint allday1,               !- Name
  {05213501-bed5-4b58-b51e-8281eb8761d6}, !- Schedule Type Limits Name
  ,                                       !- Interpolate to Timestep
  24,                                     !- Hour 1
  0,                                      !- Minute 1
  24.4444444444444;                       !- Value Until Time 1

OS:Schedule:Rule,
  {6767c404-fb01-47a8-a6e9-ed950c0ff259}, !- Handle
  cooling setpoint allday ruleset6,       !- Name
  {e2af3761-fa92-4301-a48f-d5a46179e268}, !- Schedule Ruleset Name
  1,                                      !- Rule Order
  {51e88171-cf65-46dc-8982-d166226e8a13}, !- Day Schedule Name
  Yes,                                    !- Apply Sunday
  Yes,                                    !- Apply Monday
  Yes,                                    !- Apply Tuesday
  Yes,                                    !- Apply Wednesday
  Yes,                                    !- Apply Thursday
  Yes,                                    !- Apply Friday
  Yes,                                    !- Apply Saturday
  DateRange,                              !- Date Specification Type
  6,                                      !- Start Month
  1,                                      !- Start Day
  8,                                      !- End Month
  31;                                     !- End Day

OS:Schedule:Day,
  {51e88171-cf65-46dc-8982-d166226e8a13}, !- Handle
  cooling setpoint allday6,               !- Name
  {05213501-bed5-4b58-b51e-8281eb8761d6}, !- Schedule Type Limits Name
  ,                                       !- Interpolate to Timestep
  24,                                     !- Hour 1
  0,                                      !- Minute 1
  24.7222222222222;                       !- Value Until Time 1

OS:Schedule:Rule,
  {2582e404-391b-4c34-9d79-6a2759d7889d}, !- Handle
  cooling setpoint allday ruleset9,       !- Name
  {e2af3761-fa92-4301-a48f-d5a46179e268}, !- Schedule Ruleset Name
  0,                                      !- Rule Order
  {0d938c36-17f5-41a2-b91d-f0421333caad}, !- Day Schedule Name
  Yes,                                    !- Apply Sunday
  Yes,                                    !- Apply Monday
  Yes,                                    !- Apply Tuesday
  Yes,                                    !- Apply Wednesday
  Yes,                                    !- Apply Thursday
  Yes,                                    !- Apply Friday
  Yes,                                    !- Apply Saturday
  DateRange,                              !- Date Specification Type
  9,                                      !- Start Month
  1,                                      !- Start Day
  12,                                     !- End Month
  31;                                     !- End Day

OS:Schedule:Day,
  {0d938c36-17f5-41a2-b91d-f0421333caad}, !- Handle
  cooling setpoint allday9,               !- Name
  {05213501-bed5-4b58-b51e-8281eb8761d6}, !- Schedule Type Limits Name
  ,                                       !- Interpolate to Timestep
  24,                                     !- Hour 1
  0,                                      !- Minute 1
  24.4444444444444;                       !- Value Until Time 1

OS:ThermostatSetpoint:DualSetpoint,
  {134566cc-f0d5-4185-a7d9-ec49192685c8}, !- Handle
  living space temperature setpoint,      !- Name
  {f7ab3255-ddd3-4603-b69f-4ab4b4f7d1e8}, !- Heating Setpoint Temperature Schedule Name
  {e2af3761-fa92-4301-a48f-d5a46179e268}; !- Cooling Setpoint Temperature Schedule Name

OS:ScheduleTypeLimits,
  {05213501-bed5-4b58-b51e-8281eb8761d6}, !- Handle
  Temperature,                            !- Name
  ,                                       !- Lower Limit Value
  ,                                       !- Upper Limit Value
  Continuous,                             !- Numeric Type
  Temperature;                            !- Unit Type

OS:Surface,
  {0011aaa1-3b1b-4561-bd5f-0f4e95b64eef}, !- Handle
  Surface_8,                              !- Name
  RoofCeiling,                            !- Surface Type
  {0c84263d-bc1e-465b-87a4-45918e10dc55}, !- Construction Name
  {347aaaf5-e26b-4477-80f5-f16f771c3dbf}, !- Space Name
  Outdoors,                               !- Outside Boundary Condition
  ,                                       !- Outside Boundary Condition Object
  SunExposed,                             !- Sun Exposure
  WindExposed,                            !- Wind Exposure
  ,                                       !- View Factor to Ground
  ,                                       !- Number of Vertices
  -14.2233445848378, -57.8769429863141, 2.4384, !- X,Y,Z Vertex 1 {m}
  -14.2233445848378, -46.6100572650511, 8.0718428606315, !- X,Y,Z Vertex 2 {m}
  -26.8201057685707, -46.6100572650511, 8.0718428606315, !- X,Y,Z Vertex 3 {m}
  -26.8201057685707, -57.8769429863141, 2.4384; !- X,Y,Z Vertex 4 {m}

OS:AdditionalProperties,
  {bcfd9f7a-ffb9-4791-9c66-486b73bd417f}, !- Handle
  {0011aaa1-3b1b-4561-bd5f-0f4e95b64eef}, !- Object Name
  Length,                                 !- Feature Name 1
  Double,                                 !- Feature Data Type 1
  41.32795663954365,                      !- Feature Value 1
  Width,                                  !- Feature Name 2
  Double,                                 !- Feature Data Type 2
  41.32795663954365,                      !- Feature Value 2
  Azimuth,                                !- Feature Name 3
  Integer,                                !- Feature Data Type 3
  180,                                    !- Feature Value 3
  Tilt,                                   !- Feature Name 4
  Double,                                 !- Feature Data Type 4
  0.5,                                    !- Feature Value 4
  SurfaceType,                            !- Feature Name 5
  String,                                 !- Feature Data Type 5
  Roof;                                   !- Feature Value 5

OS:ThermalZone,
  {22ed75e5-616e-4135-8ad5-64326b801498}, !- Handle
  attic - vented,                         !- Name
  ,                                       !- Multiplier
  ,                                       !- Ceiling Height {m}
  356.389957095237,                       !- Volume {m3}
  ,                                       !- Floor Area {m2}