
OS:Version,
  {5d5ee963-90cb-465a-acf2-43ac367c06bb}, !- Handle
  3.1.0;                                  !- Version Identifier

OS:Facility,
  {02cd833c-5f47-4635-8135-6fa1c4033c5e}; !- Handle

OS:LifeCycleCost:Parameters,
  {dcdcc903-9cb6-4ca2-84a5-37a21ef4395f}, !- Handle
  ,                                       !- Analysis Type
  ,                                       !- Discounting Convention
  ,                                       !- Inflation Approach
  ,                                       !- Real Discount Rate
  ,                                       !- Nominal Discount Rate
  ,                                       !- Inflation
  ,                                       !- Base Date Month
  ,                                       !- Base Date Year
  ,                                       !- Service Date Month
  ,                                       !- Service Date Year
  ;                                       !- Length of Study Period in Years

OS:EnergyManagementSystem:ProgramCallingManager,
  {f58c8d0f-4d7e-4d21-8c75-d339c0b3d561}, !- Handle
  total_loads_program calling manager,    !- Name
  EndOfZoneTimestepAfterZoneReporting,    !- EnergyPlus Model Calling Point
  {318b2171-6aeb-4678-b2bd-26bacb34712e}; !- Program Name 1

OS:EnergyManagementSystem:Program,
  {318b2171-6aeb-4678-b2bd-26bacb34712e}, !- Handle
  total_loads_program,                    !- Name
  Set loads_htg_tot = 0,                  !- Program Line 1
  Set loads_clg_tot = 0,                  !- Program Line 2
  If htg_load_liv > 0,                    !- Program Line 3
  Set loads_htg_tot = htg_load_tot - clg_load_tot, !- Program Line 4
  ElseIf clg_load_liv > 0,                !- Program Line 5
  Set loads_clg_tot = clg_load_tot - htg_load_tot, !- Program Line 6
  EndIf;                                  !- Program Line 7

OS:EnergyManagementSystem:Sensor,
  {481901fb-c16b-4d4d-8e84-e3da22713d30}, !- Handle
  clg_load_tot,                           !- Name
  ,                                       !- Output Variable or Output Meter Index Key Name
  Cooling:EnergyTransfer;                 !- Output Variable or Output Meter Name

OS:EnergyManagementSystem:Sensor,
  {7ae25b15-56d5-41ce-be81-f7dcd3598b3a}, !- Handle
  htg_load_tot,                           !- Name
  ,                                       !- Output Variable or Output Meter Index Key Name
  Heating:EnergyTransfer;                 !- Output Variable or Output Meter Name

OS:EnergyManagementSystem:Sensor,
  {a444ab01-7507-4c74-8611-4cf111ef1416}, !- Handle
  clg_load_liv,                           !- Name
  ,                                       !- Output Variable or Output Meter Index Key Name
  Cooling:EnergyTransfer:Zone:LIVING SPACE; !- Output Variable or Output Meter Name

OS:EnergyManagementSystem:Sensor,
  {47bc6954-933f-4c36-aff7-ee93461a0993}, !- Handle
  htg_load_liv,                           !- Name
  ,                                       !- Output Variable or Output Meter Index Key Name
  Heating:EnergyTransfer:Zone:LIVING SPACE; !- Output Variable or Output Meter Name

OS:AdditionalProperties,
  {5f50b879-af14-49b6-b08e-c74ebd3b09ff}, !- Handle
  {1c82087b-a19a-4f33-ad64-47805cdd044a}, !- Object Name
  hpxml_path,                             !- Feature Name 1
  String,                                 !- Feature Data Type 1
  /Users/kcu/Desktop/Scripting/NREL_Work/UCI/Github/urbanopt-example-geojson-project/UCI_MultiFamily_test/run/baseline_scenario_res_test/20/unit 1.xml, !- Feature Value 1
  building_id,                            !- Feature Name 2
  String,                                 !- Feature Data Type 2
  ,                                       !- Feature Value 2
  hvac_map,                               !- Feature Name 3
  String,                                 !- Feature Data Type 3
  {"CoolingSystem"=>["central ac and furnace clg coil"&#44 "central_ac_and_furnace_supply_fan_s"&#44 "central_ac_and_furnace_clg_coil_s"&#44 "central_ac_and_furnace_supply_fan_disaggregate_program"&#44 "central ac and furnace supply fan disaggregate program calling manager"&#44 "central ac and furnace supply fan clg disaggregate"&#44 "central ac and furnace unitary system"&#44 "central ac and furnace airloop"]&#44 "HeatingSystem"=>["central ac and furnace htg coil"&#44 "central_ac_and_furnace_supply_fan_s_1"&#44 "central_ac_and_furnace_htg_coil_s"&#44 "central_ac_and_furnace_supply_fan_disaggregate_program_1"&#44 "central ac and furnace supply fan disaggregate program calling manager 1"&#44 "central ac and furnace supply fan htg primary disaggregate"&#44 "central ac and furnace unitary system"&#44 "central ac and furnace airloop"]}, !- Feature Value 3
  dhw_map,                                !- Feature Name 4
  String,                                 !- Feature Data Type 4
  {"WaterHeater"=>["dhw loop"&#44 "water heater"&#44 "water heater EC adjustment outvar"&#44 "Water Use Connections 1"]}, !- Feature Value 4
  NumberOfConditionedStories,             !- Feature Name 5
  Integer,                                !- Feature Data Type 5
  1;                                      !- Feature Value 5

OS:Building,
  {1c82087b-a19a-4f33-ad64-47805cdd044a}, !- Handle
  Building 1,                             !- Name
  ,                                       !- Building Sector Type
  ,                                       !- North Axis {deg}
  8,                                      !- Nominal Floor to Floor Height {m}
  ,                                       !- Space Type Name
  ,                                       !- Default Construction Set Name
  ,                                       !- Default Schedule Set Name
  1,                                      !- Standards Number of Stories
  1,                                      !- Standards Number of Above Ground Stories
  ,                                       !- Standards Template
  Residential,                            !- Standards Building Type
  3;                                      !- Standards Number of Living Units

OS:EnergyManagementSystem:ProgramCallingManager,
  {f366a40d-0d59-4617-aebf-58fbb8718d2c}, !- Handle
  infil_program calling manager,          !- Name
  BeginTimestepBeforePredictor,           !- EnergyPlus Model Calling Point
  {c1edeeea-91a3-4cfc-b91c-90d2dec11d5c}; !- Program Name 1

OS:OtherEquipment,
  {9803d603-57b0-4046-ba81-355226236c3d}, !- Handle
  mech vent house fan latent load equip,  !- Name
  {66fc9c3a-92dd-43f1-a9fa-c59d547443b7}, !- Other Equipment Definition Name
  {52d662a4-7b11-4170-89f3-b117c9aaa1d0}, !- Space or SpaceType Name
  {a22fd19f-8b22-495b-9111-1b1e4be3253e}, !- Schedule Name
  ,                                       !- Multiplier
  None,                                   !- Fuel Type
  General;                                !- End-Use Subcategory

OS:OtherEquipment:Definition,
  {66fc9c3a-92dd-43f1-a9fa-c59d547443b7}, !- Handle
  mech vent house fan latent load equip,  !- Name
  EquipmentLevel,                         !- Design Level Calculation Method
  0,                                      !- Design Level {W}
  ,                                       !- Watts per Space Floor Area {W/m2}
  ,                                       !- Watts per Person {W/Person}
  1,                                      !- Fraction Latent
  0,                                      !- Fraction Radiant
  0;                                      !- Fraction Lost

OS:EnergyManagementSystem:Actuator,
  {953ce43c-81ab-4898-98a0-50c466d3514c}, !- Handle
  mech_vent_house_fan_sensible_load_equip_act, !- Name
  {268d80ef-8838-4632-9fe3-6ff00fd35683}, !- Actuated Component Name
  OtherEquipment,                         !- Actuated Component Type
  Power Level;                            !- Actuated Component Control Type

OS:OtherEquipment,
  {268d80ef-8838-4632-9fe3-6ff00fd35683}, !- Handle
  mech vent house fan sensible load equip, !- Name
  {009f0efd-318a-415d-82e0-b13ec9b88e9e}, !- Other Equipment Definition Name
  {52d662a4-7b11-4170-89f3-b117c9aaa1d0}, !- Space or SpaceType Name
  {a22fd19f-8b22-495b-9111-1b1e4be3253e}, !- Schedule Name
  ,                                       !- Multiplier
  None,                                   !- Fuel Type
  General;                                !- End-Use Subcategory

OS:OtherEquipment:Definition,
  {009f0efd-318a-415d-82e0-b13ec9b88e9e}, !- Handle
  mech vent house fan sensible load equip, !- Name
  EquipmentLevel,                         !- Design Level Calculation Method
  0,                                      !- Design Level {W}
  ,                                       !- Watts per Space Floor Area {W/m2}
  ,                                       !- Watts per Person {W/Person}
  0,                                      !- Fraction Latent
  0,                                      !- Fraction Radiant
  0;                                      !- Fraction Lost

OS:EnergyManagementSystem:Program,
  {c1edeeea-91a3-4cfc-b91c-90d2dec11d5c}, !- Handle
  infil_program,                          !- Name
  Set p_m = 0.14,                         !- Program Line 1
  Set p_s = 0.22,                         !- Program Line 2
  Set s_m = 270,                          !- Program Line 3
  Set s_s = 370,                          !- Program Line 4
  Set z_m = 9.99744,                      !- Program Line 5
  Set z_s = 2.4384,                       !- Program Line 6
  Set f_t = (((s_m/z_m)^p_m)*((z_s/s_s)^p_s)), !- Program Line 7
  Set Tdiff = airflow_tin_s-airflow_tt_s, !- Program Line 8
  Set dT = @Abs Tdiff,                    !- Program Line 9
  Set c = 0.021,                          !- Program Line 10
  Set Cs = 0.0652,                        !- Program Line 11
  Set Cw = 0.1483,                        !- Program Line 12
  Set n = 0.65,                           !- Program Line 13
  Set sft = (f_t*0.7000000000000001),     !- Program Line 14
  Set temp1 = ((c*Cw)*((sft*site_vw_s)^(2*n)))^2, !- Program Line 15
  Set Qinf = (((c*Cs*(dT^n))^2)+temp1)^0.5, !- Program Line 16
  Set Qinf = (@Max Qinf 0),               !- Program Line 17
  Set mech_vent_house_fan_sensible_load_equip_act = 0.0, !- Program Line 18
  Set mech_vent_house_fan_latent_load_equip_act = 0.0, !- Program Line 19
  Set OASupInPb = out_pb_s,               !- Program Line 20
  Set OASupInTemp = airflow_tt_s,         !- Program Line 21
  Set OASupInW = out_wt_s,                !- Program Line 22
  Set OASupRho = (@RhoAirFnPbTdbW OASupInPb OASupInTemp OASupInW), !- Program Line 23
  Set OASupCp = (@CpAirFnW OASupInW),     !- Program Line 24
  Set OASupInEnth = (@HFnTdbW OASupInTemp OASupInW), !- Program Line 25
  Set ZoneTemp = airflow_tin_s,           !- Program Line 26
  Set ZoneW = airflow_win_s,              !- Program Line 27
  Set ZoneCp = (@CpAirFnW ZoneW),         !- Program Line 28
  Set ZoneAirEnth = (@HFnTdbW ZoneTemp ZoneW), !- Program Line 29
  Set mech_vent_house_fan_cfis_act = 0.0, !- Program Line 30
  Set QWHV_cfis_oa = 0.0,                 !- Program Line 31
  Set Qrange = 0,                         !- Program Line 32
  Set Qrange = Qrange + 0.0472 * mech_vent_range_fan_0_sch_s, !- Program Line 33
  Set Qbath = 0,                          !- Program Line 34
  Set Qbath = Qbath + 0.0236 * mech_vent_bath_fan_0_sch_s, !- Program Line 35
  Set Qdryer = 0,                         !- Program Line 36
  Set Qdryer = Qdryer + 0.0472 * clothes_dryer_exhaust_0_sch_s, !- Program Line 37
  Set QWHV_sup = 0.0,                     !- Program Line 38
  Set QWHV_exh = 0.0,                     !- Program Line 39
  Set QWHV_bal_erv_hrv = 0.0,             !- Program Line 40
  Set Qexhaust = Qrange + Qbath + Qdryer + QWHV_exh + QWHV_bal_erv_hrv, !- Program Line 41
  Set Qsupply = QWHV_sup + QWHV_bal_erv_hrv + QWHV_cfis_oa, !- Program Line 42
  Set Qfan = (@Max Qexhaust Qsupply),     !- Program Line 43
  If Qfan > 0,                            !- Program Line 44
  Set Qavg = ((Qexhaust + Qsupply) / 2.0), !- Program Line 45
  If ((@Abs (Qexhaust - Qavg)) / Qavg) <= 0.1, !- Program Line 46
  Set phi = 1,                            !- Program Line 47
  Else,                                   !- Program Line 48
  Set phi = (Qinf / (Qinf + Qfan)),       !- Program Line 49
  EndIf,                                  !- Program Line 50
  Set Qinf_adj = phi * Qinf,              !- Program Line 51
  Else,                                   !- Program Line 52
  Set Qinf_adj = Qinf,                    !- Program Line 53
  EndIf,                                  !- Program Line 54
  Set infil_flow_act = Qinf_adj,          !- Program Line 55
  Set Qload = Qfan,                       !- Program Line 56
  Set Effectiveness_Sens = 0.0,           !- Program Line 57
  Set Effectiveness_Lat = 0.0,            !- Program Line 58
  Set Fan_MFR = Qload * OASupRho,         !- Program Line 59
  Set FanTotalToLv = Fan_MFR * (OASupInEnth - ZoneAirEnth), !- Program Line 60
  Set FanSensToLv = Fan_MFR * ZoneCp * (OASupInTemp - ZoneTemp), !- Program Line 61
  Set FanLatToLv = FanTotalToLv - FanSensToLv, !- Program Line 62
  Set mech_vent_house_fan_sensible_load_equip_act = mech_vent_house_fan_sensible_load_equip_act + FanSensToLv, !- Program Line 63
  Set mech_vent_house_fan_latent_load_equip_act = mech_vent_house_fan_latent_load_equip_act + FanLatToLv; !- Program Line 64

OS:EnergyManagementSystem:Actuator,
  {577fa611-2f00-45d0-9ecd-1d46ec850213}, !- Handle
  infil_flow_act,                         !- Name
  {80b5c5cc-2a36-467f-a96d-10ad62a7c6ff}, !- Actuated Component Name
  Zone Infiltration,                      !- Actuated Component Type
  Air Exchange Flow Rate;                 !- Actuated Component Control Type

OS:SpaceInfiltration:DesignFlowRate,
  {80b5c5cc-2a36-467f-a96d-10ad62a7c6ff}, !- Handle
  infil flow,                             !- Name
  {52d662a4-7b11-4170-89f3-b117c9aaa1d0}, !- Space or SpaceType Name
  {a22fd19f-8b22-495b-9111-1b1e4be3253e}, !- Schedule Name
  Flow/Space,                             !- Design Flow Rate Calculation Method
  0,                                      !- Design Flow Rate {m3/s}
  ,                                       !- Flow per Space Floor Area {m3/s-m2}
  ,                                       !- Flow per Exterior Surface Area {m3/s-m2}
  ,                                       !- Air Changes per Hour {1/hr}
  ,                                       !- Constant Term Coefficient
  ,                                       !- Temperature Term Coefficient
  ,                                       !- Velocity Term Coefficient
  ;                                       !- Velocity Squared Term Coefficient

OS:EnergyManagementSystem:Actuator,
  {51d75281-de5a-49d4-8978-e4c15a4441eb}, !- Handle
  mech_vent_house_fan_cfis_act,           !- Name
  {b311660e-7b6d-451a-aa83-9bed2ea38951}, !- Actuated Component Name
  ElectricEquipment,                      !- Actuated Component Type
  Electricity Rate;                       !- Actuated Component Control Type

OS:ElectricEquipment,
  {b311660e-7b6d-451a-aa83-9bed2ea38951}, !- Handle
  mech vent house fan cfis,               !- Name
  {39cec1c4-e3ef-42ae-bf0e-56d6f6f0e202}, !- Electric Equipment Definition Name
  {52d662a4-7b11-4170-89f3-b117c9aaa1d0}, !- Space or SpaceType Name
  {a22fd19f-8b22-495b-9111-1b1e4be3253e}, !- Schedule Name
  ,                                       !- Multiplier
  mech vent;                              !- End-Use Subcategory

OS:ElectricEquipment:Definition,
  {39cec1c4-e3ef-42ae-bf0e-56d6f6f0e202}, !- Handle
  mech vent house fan cfis,               !- Name
  EquipmentLevel,                         !- Design Level Calculation Method
  0,                                      !- Design Level {W}
  ,                                       !- Watts per Space Floor Area {W/m2}
  ,                                       !- Watts per Person {W/person}
  0,                                      !- Fraction Latent
  0,                                      !- Fraction Radiant
  0;                                      !- Fraction Lost

OS:ElectricEquipment,
  {4093364e-ecbf-48d2-b474-1743754de6ee}, !- Handle
  mech vent house fan,                    !- Name
  {3d0b6cf0-d275-4ac9-99b2-16c93e61483b}, !- Electric Equipment Definition Name
  {52d662a4-7b11-4170-89f3-b117c9aaa1d0}, !- Space or SpaceType Name
  {a22fd19f-8b22-495b-9111-1b1e4be3253e}, !- Schedule Name
  ,                                       !- Multiplier
  mech vent;                              !- End-Use Subcategory

OS:ElectricEquipment:Definition,
  {3d0b6cf0-d275-4ac9-99b2-16c93e61483b}, !- Handle
  mech vent house fan,                    !- Name
  EquipmentLevel,                         !- Design Level Calculation Method
  0,                                      !- Design Level {W}
  ,                                       !- Watts per Space Floor Area {W/m2}
  ,                                       !- Watts per Person {W/person}
  0,                                      !- Fraction Latent
  0,                                      !- Fraction Radiant
  1;                                      !- Fraction Lost

OS:EnergyManagementSystem:Sensor,
  {53a6eb9e-729d-4364-b20c-8b574d3c0f02}, !- Handle
  clothes_dryer_exhaust_0_sch_s,          !- Name
  clothes_dryer_exhaust,                  !- Output Variable or Output Meter Index Key Name
  Schedule Value;                         !- Output Variable or Output Meter Name

OS:Schedule:File,
  {d773eed0-ba0f-425c-8d11-42a9426533a2}, !- Handle
  clothes_dryer_exhaust,                  !- Name
  {ed13d3af-0688-413f-9d2b-9a27c0c6629c}, !- Schedule Type Limits Name
  {e14bd563-d9ea-4a5f-8f7f-f7af16707f67}, !- External File Name
  15,                                     !- Column Number
  1,                                      !- Rows to Skip at Top
  8760,                                   !- Number of Hours of Data
  ,                                       !- Column Separator
  ,                                       !- Interpolate to Timestep
  60;                                     !- Minutes per Item

OS:ElectricEquipment,
  {52385d5c-998c-4266-9350-dbc6ad46c7f1}, !- Handle
  mech vent bath fan 0,                   !- Name
  {a6f42c82-8ec9-4cbb-9ad2-2e6ff00ff860}, !- Electric Equipment Definition Name
  {52d662a4-7b11-4170-89f3-b117c9aaa1d0}, !- Space or SpaceType Name
  {0a34fcb5-1f98-443a-b156-94dff0e37ab4}, !- Schedule Name
  ,                                       !- Multiplier
  mech vent;                              !- End-Use Subcategory

OS:ElectricEquipment:Definition,
  {a6f42c82-8ec9-4cbb-9ad2-2e6ff00ff860}, !- Handle
  mech vent bath fan 0,                   !- Name
  EquipmentLevel,                         !- Design Level Calculation Method
  15,                                     !- Design Level {W}
  ,                                       !- Watts per Space Floor Area {W/m2}
  ,                                       !- Watts per Person {W/person}
  0,                                      !- Fraction Latent
  0,                                      !- Fraction Radiant
  1;                                      !- Fraction Lost

OS:EnergyManagementSystem:Sensor,
  {5a052c8e-f6a0-4b29-ac38-65d57c5bbcbd}, !- Handle
  mech_vent_bath_fan_0_sch_s,             !- Name
  mech vent bath fan 0 schedule,          !- Output Variable or Output Meter Index Key Name
  Schedule Value;                         !- Output Variable or Output Meter Name

OS:Schedule:Day,
  {244d1b1d-3c90-41e3-a8a9-16ed70c78270}, !- Handle
  mech vent bath fan 0 schedule allday1,  !- Name
  {ed13d3af-0688-413f-9d2b-9a27c0c6629c}, !- Schedule Type Limits Name
  ,                                       !- Interpolate to Timestep
  7,                                      !- Hour 1
  0,                                      !- Minute 1
  0,                                      !- Value Until Time 1
  8,                                      !- Hour 2
  0,                                      !- Minute 2
  1,                                      !- Value Until Time 2
  24,                                     !- Hour 3
  0,                                      !- Minute 3
  0;                                      !- Value Until Time 3

OS:Schedule:Rule,
  {f587a3a9-8842-41b4-8e48-79b5cfac9d5f}, !- Handle
  mech vent bath fan 0 schedule allday ruleset1, !- Name
  {0a34fcb5-1f98-443a-b156-94dff0e37ab4}, !- Schedule Ruleset Name
  0,                                      !- Rule Order
  {244d1b1d-3c90-41e3-a8a9-16ed70c78270}, !- Day Schedule Name
  Yes,                                    !- Apply Sunday
  Yes,                                    !- Apply Monday
  Yes,                                    !- Apply Tuesday
  Yes,                                    !- Apply Wednesday
  Yes,                                    !- Apply Thursday
  Yes,                                    !- Apply Friday
  Yes,                                    !- Apply Saturday
  DateRange,                              !- Date Specification Type
  1,                                      !- Start Month
  1,                                      !- Start Day
  12,                                     !- End Month
  31;                                     !- End Day

OS:Schedule:Day,
  {9f815c44-74f1-4674-ac75-c4ed8ee4865a}, !- Handle
  Schedule Day 12,                        !- Name
  {ed13d3af-0688-413f-9d2b-9a27c0c6629c}, !- Schedule Type Limits Name
  ,                                       !- Interpolate to Timestep
  24,                                     !- Hour 1
  0,                                      !- Minute 1
  0;                                      !- Value Until Time 1

OS:Schedule:Ruleset,
  {0a34fcb5-1f98-443a-b156-94dff0e37ab4}, !- Handle
  mech vent bath fan 0 schedule,          !- Name
  {ed13d3af-0688-413f-9d2b-9a27c0c6629c}, !- Schedule Type Limits Name
  {9f815c44-74f1-4674-ac75-c4ed8ee4865a}; !- Default Day Schedule Name

OS:ElectricEquipment,
  {d3db2327-2405-4b9d-91de-84b8a098c6a4}, !- Handle
  mech vent range fan 0,                  !- Name
  {e206bf92-b95b-46dd-94c6-703f8fc5275d}, !- Electric Equipment Definition Name
  {52d662a4-7b11-4170-89f3-b117c9aaa1d0}, !- Space or SpaceType Name
  {45a0221a-568f-4c37-b7d2-f3c9a289e73c}, !- Schedule Name
  ,                                       !- Multiplier
  mech vent;                              !- End-Use Subcategory

OS:ElectricEquipment:Definition,
  {e206bf92-b95b-46dd-94c6-703f8fc5275d}, !- Handle
  mech vent range fan 0,                  !- Name
  EquipmentLevel,                         !- Design Level Calculation Method
  30,                                     !- Design Level {W}
  ,                                       !- Watts per Space Floor Area {W/m2}
  ,                                       !- Watts per Person {W/person}
  0,                                      !- Fraction Latent
  0,                                      !- Fraction Radiant
  1;                                      !- Fraction Lost

OS:EnergyManagementSystem:Sensor,
  {49401b7c-e12b-4b0f-b489-efeda1933219}, !- Handle
  mech_vent_range_fan_0_sch_s,            !- Name
  mech vent range fan 0 schedule,         !- Output Variable or Output Meter Index Key Name
  Schedule Value;                         !- Output Variable or Output Meter Name

OS:Schedule:Day,
  {9a85427b-3994-4236-ad75-874c185f3d57}, !- Handle
  mech vent range fan 0 schedule allday1, !- Name
  {ed13d3af-0688-413f-9d2b-9a27c0c6629c}, !- Schedule Type Limits Name
  ,                                       !- Interpolate to Timestep
  18,                                     !- Hour 1
  0,                                      !- Minute 1
  0,                                      !- Value Until Time 1
  19,                                     !- Hour 2
  0,                                      !- Minute 2
  1,                                      !- Value Until Time 2
  24,                                     !- Hour 3
  0,                                      !- Minute 3
  0;                                      !- Value Until Time 3

OS:Schedule:Rule,
  {7cf2b1b0-3705-481a-9229-c6b55e9c5a36}, !- Handle
  mech vent range fan 0 schedule allday ruleset1, !- Name
  {45a0221a-568f-4c37-b7d2-f3c9a289e73c}, !- Schedule Ruleset Name
  0,                                      !- Rule Order
  {9a85427b-3994-4236-ad75-874c185f3d57}, !- Day Schedule Name
  Yes,                                    !- Apply Sunday
  Yes,                                    !- Apply Monday
  Yes,                                    !- Apply Tuesday
  Yes,                                    !- Apply Wednesday
  Yes,                                    !- Apply Thursday
  Yes,                                    !- Apply Friday
  Yes,                                    !- Apply Saturday
  DateRange,                              !- Date Specification Type
  1,                                      !- Start Month
  1,                                      !- Start Day
  12,                                     !- End Month
  31;                                     !- End Day

OS:Schedule:Day,
  {8c7a1747-66e2-40e4-a754-33c316ae5939}, !- Handle
  Schedule Day 11,                        !- Name
  {ed13d3af-0688-413f-9d2b-9a27c0c6629c}, !- Schedule Type Limits Name
  ,                                       !- Interpolate to Timestep
  24,                                     !- Hour 1
  0,                                      !- Minute 1
  0;                                      !- Value Until Time 1

OS:Schedule:Ruleset,
  {45a0221a-568f-4c37-b7d2-f3c9a289e73c}, !- Handle
  mech vent range fan 0 schedule,         !- Name
  {ed13d3af-0688-413f-9d2b-9a27c0c6629c}, !- Schedule Type Limits Name
  {8c7a1747-66e2-40e4-a754-33c316ae5939}; !- Default Day Schedule Name

OS:EnergyManagementSystem:ProgramCallingManager,
  {43d55519-93eb-44c6-a8ae-9e9299f86772}, !- Handle
  natural_vent_program calling manager,   !- Name
  BeginTimestepBeforePredictor,           !- EnergyPlus Model Calling Point
  {253379e9-6b5f-42c1-9200-e6a11a64ca2a}; !- Program Name 1

OS:EnergyManagementSystem:Program,
  {253379e9-6b5f-42c1-9200-e6a11a64ca2a}, !- Handle
  natural_vent_program,                   !- Name
  Set Tin = airflow_tin_s,                !- Program Line 1
  Set Tout = airflow_tt_s,                !- Program Line 2
  Set Wout = out_wt_s,                    !- Program Line 3
  Set Pbar = out_pb_s,                    !- Program Line 4
  Set Phiout = (@RhFnTdbWPb Tout Wout Pbar), !- Program Line 5
  Set MaxHR = 0.0115,                     !- Program Line 6
  Set MaxRH = 0.7,                        !- Program Line 7
  Set Tnvsp = (htg_sp_s + clg_sp_s) / 2,  !- Program Line 8
  Set NVavail = natural_vent_avail_s,     !- Program Line 9
  Set ClgSsnAvail = cool_season,          !- Program Line 10
  If (Wout < MaxHR) && (Phiout < MaxRH) && (Tin > Tout) && (Tin > Tnvsp) && (ClgSsnAvail > 0), !- Program Line 11
  Set WHF_Flow = 0,                       !- Program Line 12
  Set Adj = (Tin-Tnvsp)/(Tin-Tout),       !- Program Line 13
  Set Adj = (@Min Adj 1),                 !- Program Line 14
  Set Adj = (@Max Adj 0),                 !- Program Line 15
  If (WHF_Flow > 0),                      !- Program Line 16
  Set natural_vent_flow_act = 0,          !- Program Line 17
  Set whole_house_fan_flow_act = WHF_Flow*Adj, !- Program Line 18
  Set WHF_W = 0,                          !- Program Line 19
  Set whole_house_fan_act = WHF_W*Adj,    !- Program Line 20
  ElseIf (NVavail > 0),                   !- Program Line 21
  Set NVArea = 5743.971995904,            !- Program Line 22
  Set Cs = 8.963020389461627e-05,         !- Program Line 23
  Set Cw = 6.158219665777789e-05,         !- Program Line 24
  Set Tdiff = Tin-Tout,                   !- Program Line 25
  Set dT = (@Abs Tdiff),                  !- Program Line 26
  Set Vwind = site_vw_s,                  !- Program Line 27
  Set SGNV = NVArea*Adj*((((Cs*dT)+(Cw*(Vwind^2)))^0.5)/1000), !- Program Line 28
  Set MaxNV = 1.7845905985536004,         !- Program Line 29
  Set natural_vent_flow_act = (@Min SGNV MaxNV), !- Program Line 30
  Set whole_house_fan_flow_act = 0,       !- Program Line 31
  Set whole_house_fan_act = 0,            !- Program Line 32
  EndIf,                                  !- Program Line 33
  Else,                                   !- Program Line 34
  Set natural_vent_flow_act = 0,          !- Program Line 35
  Set whole_house_fan_flow_act = 0,       !- Program Line 36
  Set whole_house_fan_act = 0,            !- Program Line 37
  EndIf;                                  !- Program Line 38

OS:EnergyManagementSystem:Actuator,
  {06139a86-01ac-43e2-a93b-b31fffcddeb1}, !- Handle
  whole_house_fan_act,                    !- Name
  {ff50204b-d421-405b-8075-f36a74374b02}, !- Actuated Component Name
  ElectricEquipment,                      !- Actuated Component Type
  Electricity Rate;                       !- Actuated Component Control Type

OS:ElectricEquipment,
  {ff50204b-d421-405b-8075-f36a74374b02}, !- Handle
  whole house fan,                        !- Name
  {88359e9c-8a4d-4c0c-9539-3ec74b3e1cca}, !- Electric Equipment Definition Name
  {52d662a4-7b11-4170-89f3-b117c9aaa1d0}, !- Space or SpaceType Name
  {a22fd19f-8b22-495b-9111-1b1e4be3253e}, !- Schedule Name
  ,                                       !- Multiplier
  whole house fan;                        !- End-Use Subcategory

OS:ElectricEquipment:Definition,
  {88359e9c-8a4d-4c0c-9539-3ec74b3e1cca}, !- Handle
  whole house fan,                        !- Name
  EquipmentLevel,                         !- Design Level Calculation Method
  0,                                      !- Design Level {W}
  ,                                       !- Watts per Space Floor Area {W/m2}
  ,                                       !- Watts per Person {W/person}
  0,                                      !- Fraction Latent
  0,                                      !- Fraction Radiant