
OS:Version,
  {e32447a5-7b3a-4bff-a499-79adb28436f6}, !- Handle
  3.1.0;                                  !- Version Identifier

OS:Facility,
  {bae7b116-4d1a-4326-9ccd-7cf0cb96c817}; !- Handle

OS:LifeCycleCost:Parameters,
  {27815820-56cb-4341-b8ad-a5b28ebae89e}, !- Handle
  ,                                       !- Analysis Type
  ,                                       !- Discounting Convention
  ,                                       !- Inflation Approach
  ,                                       !- Real Discount Rate
  ,                                       !- Nominal Discount Rate
  ,                                       !- Inflation
  ,                                       !- Base Date Month
  ,                                       !- Base Date Year
  ,                                       !- Service Date Month
  ,                                       !- Service Date Year
  ;                                       !- Length of Study Period in Years

OS:EnergyManagementSystem:ProgramCallingManager,
  {3c64040c-512d-4027-a15e-8e5381f7dfd6}, !- Handle
  total_loads_program calling manager,    !- Name
  EndOfZoneTimestepAfterZoneReporting,    !- EnergyPlus Model Calling Point
  {27834bfb-1edb-4d23-a945-4a1d4ff368a3}; !- Program Name 1

OS:EnergyManagementSystem:Program,
  {27834bfb-1edb-4d23-a945-4a1d4ff368a3}, !- Handle
  total_loads_program,                    !- Name
  Set loads_htg_tot = 0,                  !- Program Line 1
  Set loads_clg_tot = 0,                  !- Program Line 2
  If htg_load_liv > 0,                    !- Program Line 3
  Set loads_htg_tot = htg_load_tot - clg_load_tot, !- Program Line 4
  ElseIf clg_load_liv > 0,                !- Program Line 5
  Set loads_clg_tot = clg_load_tot - htg_load_tot, !- Program Line 6
  EndIf;                                  !- Program Line 7

OS:EnergyManagementSystem:Sensor,
  {72275962-3266-426d-8a49-bd8ce93b1280}, !- Handle
  clg_load_tot,                           !- Name
  ,                                       !- Output Variable or Output Meter Index Key Name
  Cooling:EnergyTransfer;                 !- Output Variable or Output Meter Name

OS:EnergyManagementSystem:Sensor,
  {57e73b14-23a6-469a-958e-d158b2c78c43}, !- Handle
  htg_load_tot,                           !- Name
  ,                                       !- Output Variable or Output Meter Index Key Name
  Heating:EnergyTransfer;                 !- Output Variable or Output Meter Name

OS:EnergyManagementSystem:Sensor,
  {8fd66600-68c4-4ac0-9b37-d15cc679022a}, !- Handle
  clg_load_liv,                           !- Name
  ,                                       !- Output Variable or Output Meter Index Key Name
  Cooling:EnergyTransfer:Zone:LIVING SPACE; !- Output Variable or Output Meter Name

OS:EnergyManagementSystem:Sensor,
  {acc2ebf1-7748-4933-a02e-5b50602858f8}, !- Handle
  htg_load_liv,                           !- Name
  ,                                       !- Output Variable or Output Meter Index Key Name
  Heating:EnergyTransfer:Zone:LIVING SPACE; !- Output Variable or Output Meter Name

OS:AdditionalProperties,
  {444a193a-e10f-42f3-835d-809bb47e7d44}, !- Handle
  {e66ba770-2a88-4dbd-8366-3e660301f6bb}, !- Object Name
  hpxml_path,                             !- Feature Name 1
  String,                                 !- Feature Data Type 1
  /Users/kcu/Desktop/Scripting/NREL_Work/UCI/Github/urbanopt-example-geojson-project/UCI_MultiFamily_test/run/baseline_scenario_res_test/0/unit 1.xml, !- Feature Value 1
  building_id,                            !- Feature Name 2
  String,                                 !- Feature Data Type 2
  ,                                       !- Feature Value 2
  hvac_map,                               !- Feature Name 3
  String,                                 !- Feature Data Type 3
  {"CoolingSystem"=>["central ac and furnace clg coil"&#44 "central_ac_and_furnace_supply_fan_s"&#44 "central_ac_and_furnace_clg_coil_s"&#44 "central_ac_and_furnace_supply_fan_disaggregate_program"&#44 "central ac and furnace supply fan disaggregate program calling manager"&#44 "central ac and furnace supply fan clg disaggregate"&#44 "central ac and furnace unitary system"&#44 "central ac and furnace airloop"]&#44 "HeatingSystem"=>["central ac and furnace htg coil"&#44 "central_ac_and_furnace_supply_fan_s_1"&#44 "central_ac_and_furnace_htg_coil_s"&#44 "central_ac_and_furnace_supply_fan_disaggregate_program_1"&#44 "central ac and furnace supply fan disaggregate program calling manager 1"&#44 "central ac and furnace supply fan htg primary disaggregate"&#44 "central ac and furnace unitary system"&#44 "central ac and furnace airloop"]}, !- Feature Value 3
  dhw_map,                                !- Feature Name 4
  String,                                 !- Feature Data Type 4
  {"WaterHeater"=>["dhw loop"&#44 "water heater"&#44 "water heater EC adjustment outvar"&#44 "Water Use Connections 1"]}, !- Feature Value 4
  NumberOfConditionedStories,             !- Feature Name 5
  Integer,                                !- Feature Data Type 5
  1;                                      !- Feature Value 5

OS:Building,
  {e66ba770-2a88-4dbd-8366-3e660301f6bb}, !- Handle
  Building 1,                             !- Name
  ,                                       !- Building Sector Type
  ,                                       !- North Axis {deg}
  8,                                      !- Nominal Floor to Floor Height {m}
  ,                                       !- Space Type Name
  ,                                       !- Default Construction Set Name
  ,                                       !- Default Schedule Set Name
  1,                                      !- Standards Number of Stories
  1,                                      !- Standards Number of Above Ground Stories
  ,                                       !- Standards Template
  Residential,                            !- Standards Building Type
  3;                                      !- Standards Number of Living Units

OS:EnergyManagementSystem:ProgramCallingManager,
  {b2d09fbe-505e-48fc-a67c-05c7deaff402}, !- Handle
  infil_program calling manager,          !- Name
  BeginTimestepBeforePredictor,           !- EnergyPlus Model Calling Point
  {74c3135d-8d9d-4e97-9af5-faa2320a9ea7}; !- Program Name 1

OS:EnergyManagementSystem:Actuator,
  {4cfe4fd8-3350-4361-966c-b3111d19ad00}, !- Handle
  mech_vent_house_fan_latent_load_equip_act, !- Name
  {70d34a30-b8d0-4da7-82f1-c9a9853ebd7a}, !- Actuated Component Name
  OtherEquipment,                         !- Actuated Component Type
  Power Level;                            !- Actuated Component Control Type

OS:OtherEquipment,
  {70d34a30-b8d0-4da7-82f1-c9a9853ebd7a}, !- Handle
  mech vent house fan latent load equip,  !- Name
  {6030c1e7-3cbe-474a-a3cd-a731b9aee87a}, !- Other Equipment Definition Name
  {1f7e3581-e2b8-45c1-9fe6-75855bb21868}, !- Space or SpaceType Name
  {eb12794c-8df8-4d7c-b402-4b23ebe86123}, !- Schedule Name
  ,                                       !- Multiplier
  None,                                   !- Fuel Type
  General;                                !- End-Use Subcategory

OS:EnergyManagementSystem:Actuator,
  {56e3c136-1ffc-4917-9b29-7d212c08c591}, !- Handle
  mech_vent_house_fan_sensible_load_equip_act, !- Name
  {6ee58159-0917-4998-864f-41e368b8491c}, !- Actuated Component Name
  OtherEquipment,                         !- Actuated Component Type
  Power Level;                            !- Actuated Component Control Type

OS:OtherEquipment,
  {6ee58159-0917-4998-864f-41e368b8491c}, !- Handle
  mech vent house fan sensible load equip, !- Name
  {7ef148a1-25a8-4c74-a3fa-9392b5d4cca3}, !- Other Equipment Definition Name
  {1f7e3581-e2b8-45c1-9fe6-75855bb21868}, !- Space or SpaceType Name
  {eb12794c-8df8-4d7c-b402-4b23ebe86123}, !- Schedule Name
  ,                                       !- Multiplier
  None,                                   !- Fuel Type
  General;                                !- End-Use Subcategory

OS:OtherEquipment:Definition,
  {7ef148a1-25a8-4c74-a3fa-9392b5d4cca3}, !- Handle
  mech vent house fan sensible load equip, !- Name
  EquipmentLevel,                         !- Design Level Calculation Method
  0,                                      !- Design Level {W}
  ,                                       !- Watts per Space Floor Area {W/m2}
  ,                                       !- Watts per Person {W/Person}
  0,                                      !- Fraction Latent
  0,                                      !- Fraction Radiant
  0;                                      !- Fraction Lost

OS:EnergyManagementSystem:Program,
  {74c3135d-8d9d-4e97-9af5-faa2320a9ea7}, !- Handle
  infil_program,                          !- Name
  Set p_m = 0.14,                         !- Program Line 1
  Set p_s = 0.22,                         !- Program Line 2
  Set s_m = 270,                          !- Program Line 3
  Set s_s = 370,                          !- Program Line 4
  Set z_m = 9.99744,                      !- Program Line 5
  Set z_s = 2.4384,                       !- Program Line 6
  Set f_t = (((s_m/z_m)^p_m)*((z_s/s_s)^p_s)), !- Program Line 7
  Set Tdiff = airflow_tin_s-airflow_tt_s, !- Program Line 8
  Set dT = @Abs Tdiff,                    !- Program Line 9
  Set c = 0.0244,                         !- Program Line 10
  Set Cs = 0.0652,                        !- Program Line 11
  Set Cw = 0.1483,                        !- Program Line 12
  Set n = 0.65,                           !- Program Line 13
  Set sft = (f_t*0.7000000000000001),     !- Program Line 14
  Set temp1 = ((c*Cw)*((sft*site_vw_s)^(2*n)))^2, !- Program Line 15
  Set Qinf = (((c*Cs*(dT^n))^2)+temp1)^0.5, !- Program Line 16
  Set Qinf = (@Max Qinf 0),               !- Program Line 17
  Set mech_vent_house_fan_sensible_load_equip_act = 0.0, !- Program Line 18
  Set mech_vent_house_fan_latent_load_equip_act = 0.0, !- Program Line 19
  Set OASupInPb = out_pb_s,               !- Program Line 20
  Set OASupInTemp = airflow_tt_s,         !- Program Line 21
  Set OASupInW = out_wt_s,                !- Program Line 22
  Set OASupRho = (@RhoAirFnPbTdbW OASupInPb OASupInTemp OASupInW), !- Program Line 23
  Set OASupCp = (@CpAirFnW OASupInW),     !- Program Line 24
  Set OASupInEnth = (@HFnTdbW OASupInTemp OASupInW), !- Program Line 25
  Set ZoneTemp = airflow_tin_s,           !- Program Line 26
  Set ZoneW = airflow_win_s,              !- Program Line 27
  Set ZoneCp = (@CpAirFnW ZoneW),         !- Program Line 28
  Set ZoneAirEnth = (@HFnTdbW ZoneTemp ZoneW), !- Program Line 29
  Set mech_vent_house_fan_cfis_act = 0.0, !- Program Line 30
  Set QWHV_cfis_oa = 0.0,                 !- Program Line 31
  Set Qrange = 0,                         !- Program Line 32
  Set Qrange = Qrange + 0.0472 * mech_vent_range_fan_0_sch_s, !- Program Line 33
  Set Qbath = 0,                          !- Program Line 34
  Set Qbath = Qbath + 0.0236 * mech_vent_bath_fan_0_sch_s, !- Program Line 35
  Set Qdryer = 0,                         !- Program Line 36
  Set Qdryer = Qdryer + 0.0472 * clothes_dryer_exhaust_0_sch_s, !- Program Line 37
  Set QWHV_sup = 0.0,                     !- Program Line 38
  Set QWHV_exh = 0.0,                     !- Program Line 39
  Set QWHV_bal_erv_hrv = 0.0,             !- Program Line 40
  Set Qexhaust = Qrange + Qbath + Qdryer + QWHV_exh + QWHV_bal_erv_hrv, !- Program Line 41
  Set Qsupply = QWHV_sup + QWHV_bal_erv_hrv + QWHV_cfis_oa, !- Program Line 42
  Set Qfan = (@Max Qexhaust Qsupply),     !- Program Line 43
  If Qfan > 0,                            !- Program Line 44
  Set Qavg = ((Qexhaust + Qsupply) / 2.0), !- Program Line 45
  If ((@Abs (Qexhaust - Qavg)) / Qavg) <= 0.1, !- Program Line 46
  Set phi = 1,                            !- Program Line 47
  Else,                                   !- Program Line 48
  Set phi = (Qinf / (Qinf + Qfan)),       !- Program Line 49
  EndIf,                                  !- Program Line 50
  Set Qinf_adj = phi * Qinf,              !- Program Line 51
  Else,                                   !- Program Line 52
  Set Qinf_adj = Qinf,                    !- Program Line 53
  EndIf,                                  !- Program Line 54
  Set infil_flow_act = Qinf_adj,          !- Program Line 55
  Set Qload = Qfan,                       !- Program Line 56
  Set Effectiveness_Sens = 0.0,           !- Program Line 57
  Set Effectiveness_Lat = 0.0,            !- Program Line 58
  Set Fan_MFR = Qload * OASupRho,         !- Program Line 59
  Set FanTotalToLv = Fan_MFR * (OASupInEnth - ZoneAirEnth), !- Program Line 60
  Set FanSensToLv = Fan_MFR * ZoneCp * (OASupInTemp - ZoneTemp), !- Program Line 61
  Set FanLatToLv = FanTotalToLv - FanSensToLv, !- Program Line 62
  Set mech_vent_house_fan_sensible_load_equip_act = mech_vent_house_fan_sensible_load_equip_act + FanSensToLv, !- Program Line 63
  Set mech_vent_house_fan_latent_load_equip_act = mech_vent_house_fan_latent_load_equip_act + FanLatToLv; !- Program Line 64

OS:EnergyManagementSystem:Actuator,
  {826303d1-e022-4743-a8fd-f405caa146da}, !- Handle
  infil_flow_act,                         !- Name
  {7f9cb948-d4a1-4f64-a6b2-631b8467446d}, !- Actuated Component Name
  Zone Infiltration,                      !- Actuated Component Type
  Air Exchange Flow Rate;                 !- Actuated Component Control Type

OS:SpaceInfiltration:DesignFlowRate,
  {7f9cb948-d4a1-4f64-a6b2-631b8467446d}, !- Handle
  infil flow,                             !- Name
  {1f7e3581-e2b8-45c1-9fe6-75855bb21868}, !- Space or SpaceType Name
  {eb12794c-8df8-4d7c-b402-4b23ebe86123}, !- Schedule Name
  Flow/Space,                             !- Design Flow Rate Calculation Method
  0,                                      !- Design Flow Rate {m3/s}
  ,                                       !- Flow per Space Floor Area {m3/s-m2}
  ,                                       !- Flow per Exterior Surface Area {m3/s-m2}
  ,                                       !- Air Changes per Hour {1/hr}
  ,                                       !- Constant Term Coefficient
  ,                                       !- Temperature Term Coefficient
  ,                                       !- Velocity Term Coefficient
  ;                                       !- Velocity Squared Term Coefficient

OS:EnergyManagementSystem:Actuator,
  {f7636629-96db-43ee-a3a6-579568b1eba0}, !- Handle
  mech_vent_house_fan_cfis_act,           !- Name
  {58c2c5b0-1bf7-4b75-a9f7-1079e7b243fc}, !- Actuated Component Name
  ElectricEquipment,                      !- Actuated Component Type
  Electricity Rate;                       !- Actuated Component Control Type

OS:ElectricEquipment,
  {58c2c5b0-1bf7-4b75-a9f7-1079e7b243fc}, !- Handle
  mech vent house fan cfis,               !- Name
  {fbabb08f-fa23-4f32-936e-fcdee4f88cbc}, !- Electric Equipment Definition Name
  {1f7e3581-e2b8-45c1-9fe6-75855bb21868}, !- Space or SpaceType Name
  {eb12794c-8df8-4d7c-b402-4b23ebe86123}, !- Schedule Name
  ,                                       !- Multiplier
  mech vent;                              !- End-Use Subcategory

OS:ElectricEquipment:Definition,
  {fbabb08f-fa23-4f32-936e-fcdee4f88cbc}, !- Handle
  mech vent house fan cfis,               !- Name
  EquipmentLevel,                         !- Design Level Calculation Method
  0,                                      !- Design Level {W}
  ,                                       !- Watts per Space Floor Area {W/m2}
  ,                                       !- Watts per Person {W/person}
  0,                                      !- Fraction Latent
  0,                                      !- Fraction Radiant
  0;                                      !- Fraction Lost

OS:ElectricEquipment,
  {dfe9d21e-26fa-496e-a237-705d702ffa41}, !- Handle
  mech vent house fan,                    !- Name
  {9b2be1ec-0194-4026-9eed-5bf7787ab7ad}, !- Electric Equipment Definition Name
  {1f7e3581-e2b8-45c1-9fe6-75855bb21868}, !- Space or SpaceType Name
  {eb12794c-8df8-4d7c-b402-4b23ebe86123}, !- Schedule Name
  ,                                       !- Multiplier
  mech vent;                              !- End-Use Subcategory

OS:ElectricEquipment:Definition,
  {9b2be1ec-0194-4026-9eed-5bf7787ab7ad}, !- Handle
  mech vent house fan,                    !- Name
  EquipmentLevel,                         !- Design Level Calculation Method
  0,                                      !- Design Level {W}
  ,                                       !- Watts per Space Floor Area {W/m2}
  ,                                       !- Watts per Person {W/person}
  0,                                      !- Fraction Latent
  0,                                      !- Fraction Radiant
  1;                                      !- Fraction Lost

OS:EnergyManagementSystem:Sensor,
  {6000ed26-c52f-401a-9b13-6b574240ffe0}, !- Handle
  clothes_dryer_exhaust_0_sch_s,          !- Name
  clothes_dryer_exhaust,                  !- Output Variable or Output Meter Index Key Name
  Schedule Value;                         !- Output Variable or Output Meter Name

OS:Schedule:File,
  {200167d0-4d1e-4f94-9558-095c66672e70}, !- Handle
  clothes_dryer_exhaust,                  !- Name
  {1c22a348-062b-4401-8232-99dd2ccd73a7}, !- Schedule Type Limits Name
  {83c7ffdd-df1d-4fe2-88b7-f9304c339ad8}, !- External File Name
  15,                                     !- Column Number
  1,                                      !- Rows to Skip at Top
  8760,                                   !- Number of Hours of Data
  ,                                       !- Column Separator
  ,                                       !- Interpolate to Timestep
  60;                                     !- Minutes per Item

OS:ElectricEquipment,
  {482100e6-25b7-4048-8c66-23c352b10e6c}, !- Handle
  mech vent bath fan 0,                   !- Name
  {a699e97d-4a58-4986-adb0-b0aed2d90e11}, !- Electric Equipment Definition Name
  {1f7e3581-e2b8-45c1-9fe6-75855bb21868}, !- Space or SpaceType Name
  {72f90261-b930-4cc5-b64c-54416eea57b2}, !- Schedule Name
  ,                                       !- Multiplier
  mech vent;                              !- End-Use Subcategory

OS:ElectricEquipment:Definition,
  {a699e97d-4a58-4986-adb0-b0aed2d90e11}, !- Handle
  mech vent bath fan 0,                   !- Name
  EquipmentLevel,                         !- Design Level Calculation Method
  15,                                     !- Design Level {W}
  ,                                       !- Watts per Space Floor Area {W/m2}
  ,                                       !- Watts per Person {W/person}
  0,                                      !- Fraction Latent
  0,                                      !- Fraction Radiant
  1;                                      !- Fraction Lost

OS:EnergyManagementSystem:Sensor,
  {a8d8f92e-0567-4be6-8530-645de07733d7}, !- Handle
  mech_vent_bath_fan_0_sch_s,             !- Name
  mech vent bath fan 0 schedule,          !- Output Variable or Output Meter Index Key Name
  Schedule Value;                         !- Output Variable or Output Meter Name

OS:Schedule:Day,
  {4b887b89-6987-48fd-9318-e892fb62a88b}, !- Handle
  mech vent bath fan 0 schedule allday1,  !- Name
  {1c22a348-062b-4401-8232-99dd2ccd73a7}, !- Schedule Type Limits Name
  ,                                       !- Interpolate to Timestep
  7,                                      !- Hour 1
  0,                                      !- Minute 1
  0,                                      !- Value Until Time 1
  8,                                      !- Hour 2
  0,                                      !- Minute 2
  1,                                      !- Value Until Time 2
  24,                                     !- Hour 3
  0,                                      !- Minute 3
  0;                                      !- Value Until Time 3

OS:Schedule:Rule,
  {b809ed28-09d4-4e0b-8235-2e52976e4730}, !- Handle
  mech vent bath fan 0 schedule allday ruleset1, !- Name
  {72f90261-b930-4cc5-b64c-54416eea57b2}, !- Schedule Ruleset Name
  0,                                      !- Rule Order
  {4b887b89-6987-48fd-9318-e892fb62a88b}, !- Day Schedule Name
  Yes,                                    !- Apply Sunday
  Yes,                                    !- Apply Monday
  Yes,                                    !- Apply Tuesday
  Yes,                                    !- Apply Wednesday
  Yes,                                    !- Apply Thursday
  Yes,                                    !- Apply Friday
  Yes,                                    !- Apply Saturday
  DateRange,                              !- Date Specification Type
  1,                                      !- Start Month
  1,                                      !- Start Day
  12,                                     !- End Month
  31;                                     !- End Day

OS:Schedule:Day,
  {3c7d0289-9476-4081-bce4-40cf385515dd}, !- Handle
  Schedule Day 12,                        !- Name
  {1c22a348-062b-4401-8232-99dd2ccd73a7}, !- Schedule Type Limits Name
  ,                                       !- Interpolate to Timestep
  24,                                     !- Hour 1
  0,                                      !- Minute 1
  0;                                      !- Value Until Time 1

OS:Schedule:Ruleset,
  {72f90261-b930-4cc5-b64c-54416eea57b2}, !- Handle
  mech vent bath fan 0 schedule,          !- Name
  {1c22a348-062b-4401-8232-99dd2ccd73a7}, !- Schedule Type Limits Name
  {3c7d0289-9476-4081-bce4-40cf385515dd}; !- Default Day Schedule Name

OS:ElectricEquipment,
  {274f2835-d36e-4384-872a-ab8655f08529}, !- Handle
  mech vent range fan 0,                  !- Name
  {fb7db909-4542-4da1-b4ee-9c0b34db3a19}, !- Electric Equipment Definition Name
  {1f7e3581-e2b8-45c1-9fe6-75855bb21868}, !- Space or SpaceType Name
  {a593d00d-9df3-4d91-a44a-7961913deb24}, !- Schedule Name
  ,                                       !- Multiplier
  mech vent;                              !- End-Use Subcategory

OS:ElectricEquipment:Definition,
  {fb7db909-4542-4da1-b4ee-9c0b34db3a19}, !- Handle
  mech vent range fan 0,                  !- Name
  EquipmentLevel,                         !- Design Level Calculation Method
  30,                                     !- Design Level {W}
  ,                                       !- Watts per Space Floor Area {W/m2}
  ,                                       !- Watts per Person {W/person}
  0,                                      !- Fraction Latent
  0,                                      !- Fraction Radiant
  1;                                      !- Fraction Lost

OS:EnergyManagementSystem:Sensor,
  {fd630437-d26d-498e-b350-114dc1ab390a}, !- Handle
  mech_vent_range_fan_0_sch_s,            !- Name
  mech vent range fan 0 schedule,         !- Output Variable or Output Meter Index Key Name
  Schedule Value;                         !- Output Variable or Output Meter Name

OS:Schedule:Day,
  {43e1e2a6-afd0-4278-b136-d7bb0bc4ab2a}, !- Handle
  mech vent range fan 0 schedule allday1, !- Name
  {1c22a348-062b-4401-8232-99dd2ccd73a7}, !- Schedule Type Limits Name
  ,                                       !- Interpolate to Timestep
  18,                                     !- Hour 1
  0,                                      !- Minute 1
  0,                                      !- Value Until Time 1
  19,                                     !- Hour 2
  0,                                      !- Minute 2
  1,                                      !- Value Until Time 2
  24,                                     !- Hour 3
  0,                                      !- Minute 3
  0;                                      !- Value Until Time 3

OS:Schedule:Rule,
  {8eefd67d-abf0-4610-9388-2ed90f8aece9}, !- Handle
  mech vent range fan 0 schedule allday ruleset1, !- Name
  {a593d00d-9df3-4d91-a44a-7961913deb24}, !- Schedule Ruleset Name
  0,                                      !- Rule Order
  {43e1e2a6-afd0-4278-b136-d7bb0bc4ab2a}, !- Day Schedule Name
  Yes,                                    !- Apply Sunday
  Yes,                                    !- Apply Monday
  Yes,                                    !- Apply Tuesday
  Yes,                                    !- Apply Wednesday
  Yes,                                    !- Apply Thursday
  Yes,                                    !- Apply Friday
  Yes,                                    !- Apply Saturday
  DateRange,                              !- Date Specification Type
  1,                                      !- Start Month
  1,                                      !- Start Day
  12,                                     !- End Month
  31;                                     !- End Day

OS:Schedule:Day,
  {6d92a28f-2b46-48e1-b035-a8aba29b30f7}, !- Handle
  Schedule Day 11,                        !- Name
  {1c22a348-062b-4401-8232-99dd2ccd73a7}, !- Schedule Type Limits Name
  ,                                       !- Interpolate to Timestep
  24,                                     !- Hour 1
  0,                                      !- Minute 1
  0;                                      !- Value Until Time 1

OS:Schedule:Ruleset,
  {a593d00d-9df3-4d91-a44a-7961913deb24}, !- Handle
  mech vent range fan 0 schedule,         !- Name
  {1c22a348-062b-4401-8232-99dd2ccd73a7}, !- Schedule Type Limits Name
  {6d92a28f-2b46-48e1-b035-a8aba29b30f7}; !- Default Day Schedule Name

OS:EnergyManagementSystem:ProgramCallingManager,
  {6159fd7a-310d-4ef4-8ba1-76d9be0ba008}, !- Handle
  natural_vent_program calling manager,   !- Name
  BeginTimestepBeforePredictor,           !- EnergyPlus Model Calling Point
  {bd9f842f-cc77-4e17-b848-88b9755a40ba}; !- Program Name 1

OS:EnergyManagementSystem:Program,
  {bd9f842f-cc77-4e17-b848-88b9755a40ba}, !- Handle
  natural_vent_program,                   !- Name
  Set Tin = airflow_tin_s,                !- Program Line 1
  Set Tout = airflow_tt_s,                !- Program Line 2
  Set Wout = out_wt_s,                    !- Program Line 3
  Set Pbar = out_pb_s,                    !- Program Line 4
  Set Phiout = (@RhFnTdbWPb Tout Wout Pbar), !- Program Line 5
  Set MaxHR = 0.0115,                     !- Program Line 6
  Set MaxRH = 0.7,                        !- Program Line 7
  Set Tnvsp = (htg_sp_s + clg_sp_s) / 2,  !- Program Line 8
  Set NVavail = natural_vent_avail_s,     !- Program Line 9
  Set ClgSsnAvail = cool_season,          !- Program Line 10
  If (Wout < MaxHR) && (Phiout < MaxRH) && (Tin > Tout) && (Tin > Tnvsp) && (ClgSsnAvail > 0), !- Program Line 11
  Set WHF_Flow = 0,                       !- Program Line 12
  Set Adj = (Tin-Tnvsp)/(Tin-Tout),       !- Program Line 13
  Set Adj = (@Min Adj 1),                 !- Program Line 14
  Set Adj = (@Max Adj 0),                 !- Program Line 15
  If (WHF_Flow > 0),                      !- Program Line 16
  Set natural_vent_flow_act = 0,          !- Program Line 17
  Set whole_house_fan_flow_act = WHF_Flow*Adj, !- Program Line 18
  Set WHF_W = 0,                          !- Program Line 19
  Set whole_house_fan_act = WHF_W*Adj,    !- Program Line 20
  ElseIf (NVavail > 0),                   !- Program Line 21
  Set NVArea = 6162.258643200001,         !- Program Line 22
  Set Cs = 8.963020389461627e-05,         !- Program Line 23
  Set Cw = 6.158219665777789e-05,         !- Program Line 24
  Set Tdiff = Tin-Tout,                   !- Program Line 25
  Set dT = (@Abs Tdiff),                  !- Program Line 26
  Set Vwind = site_vw_s,                  !- Program Line 27
  Set SGNV = NVArea*Adj*((((Cs*dT)+(Cw*(Vwind^2)))^0.5)/1000), !- Program Line 28
  Set MaxNV = 2.0753102235648004,         !- Program Line 29
  Set natural_vent_flow_act = (@Min SGNV MaxNV), !- Program Line 30
  Set whole_house_fan_flow_act = 0,       !- Program Line 31
  Set whole_house_fan_act = 0,            !- Program Line 32
  EndIf,                                  !- Program Line 33
  Else,                                   !- Program Line 34
  Set natural_vent_flow_act = 0,          !- Program Line 35
  Set whole_house_fan_flow_act = 0,       !- Program Line 36
  Set whole_house_fan_act = 0,            !- Program Line 37
  EndIf;                                  !- Program Line 38

OS:ElectricEquipment,
  {787ec160-35e1-4120-a02b-00dfca273347}, !- Handle
  whole house fan,                        !- Name
  {672ab387-04f4-46a2-8d3d-23849a772b09}, !- Electric Equipment Definition Name
  {1f7e3581-e2b8-45c1-9fe6-75855bb21868}, !- Space or SpaceType Name
  {eb12794c-8df8-4d7c-b402-4b23ebe86123}, !- Schedule Name
  ,                                       !- Multiplier
  whole house fan;                        !- End-Use Subcategory

OS:ElectricEquipment:Definition,
  {672ab387-04f4-46a2-8d3d-23849a772b09}, !- Handle
  whole house fan,                        !- Name
  EquipmentLevel,                         !- Design Level Calculation Method
  0,                                      !- Design Level {W}
  ,                                       !- Watts per Space Floor Area {W/m2}
  ,                                       !- Watts per Person {W/person}
  0,                                      !- Fraction Latent
  0,                                      !- Fraction Radiant
  1;                                      !- Fraction Lost

OS:EnergyManagementSystem:Actuator,
  {ff98f2d6-4651-4c2c-b1e7-f8cbd3e1500a}, !- Handle
  whole_house_fan_flow_act,               !- Name
  {88a6576d-343f-4f4f-9396-0de720efb856}, !- Actuated Component Name
  Zone Infiltration,                      !- Actuated Component Type
  Air Exchange Flow Rate;                 !- Actuated Component Control Type

OS:SpaceInfiltration:DesignFlowRate,
  {88a6576d-343f-4f4f-9396-0de720efb856}, !- Handle
  whole house fan flow,                   !- Name
  {1f7e3581-e2b8-45c1-9fe6-75855bb21868}, !- Space or SpaceType Name