New Linecode.3P_UG_Code0 units=km nphases=3 normamps=200.0

