Clear

New Circuit.Full_Network bus1=source pu=1.0 basekV=13.200000000000001

Redirect WireData.dss
Redirect LineGeometry.dss
Redirect LineCodes.dss
Redirect Lines.dss
Redirect Transformers.dss
Redirect LoadShapes.dss
Redirect Loads.dss

Set Voltagebases=[0.20784609690826525, 0.48, 7.621023553303061, 13.200000000000001]

Calcvoltagebases

Buscoords Buscoords.dss

Solve