
OS:Version,
  {3f247703-23fd-43f5-afb0-0030dde70dbf}, !- Handle
  3.1.0;                                  !- Version Identifier

OS:Facility,
  {edb04e62-307d-4ea8-a869-38687b190151}; !- Handle

OS:Site,
  {9c77405d-1ed2-41bd-80ec-040e4894fcb7}, !- Handle
  Buffalo Niagara Intl Ap_NY_USA,         !- Name
  42.8170218879136,                       !- Latitude {deg}
  -78.8491529713029,                      !- Longitude {deg}
  -5,                                     !- Time Zone {hr}
  215,                                    !- Elevation {m}
  City;                                   !- Terrain

OS:SimulationControl,
  {d0929649-0a32-4b5c-b24e-b12f837e4f41}, !- Handle
  ,                                       !- Do Zone Sizing Calculation
  ,                                       !- Do System Sizing Calculation
  ,                                       !- Do Plant Sizing Calculation
  No,                                     !- Run Simulation for Sizing Periods
  Yes,                                    !- Run Simulation for Weather File Run Periods
  ,                                       !- Loads Convergence Tolerance Value {W}
  ,                                       !- Temperature Convergence Tolerance Value {deltaC}
  ,                                       !- Solar Distribution
  ,                                       !- Maximum Number of Warmup Days
  ,                                       !- Minimum Number of Warmup Days
  Yes,                                    !- Do HVAC Sizing Simulation for Sizing Periods
  1;                                      !- Maximum Number of HVAC Sizing Simulation Passes

OS:Sizing:Parameters,
  {b61b587f-39d3-4d65-bef7-c5637b5b30fd}, !- Handle
  1.25,                                   !- Heating Sizing Factor
  1.15;                                   !- Cooling Sizing Factor

OS:Timestep,
  {9a9966d4-1d8a-45e1-b1cb-f1c10fdc2f3b}, !- Handle
  1;                                      !- Number of Timesteps per Hour

OS:ShadowCalculation,
  {cb65a08c-af3c-4bfe-a826-4daeef14b314}, !- Handle
  PolygonClipping,                        !- Shading Calculation Method
  ,                                       !- Shading Calculation Update Frequency Method
  20,                                     !- Shading Calculation Update Frequency
  15000,                                  !- Maximum Figures in Shadow Overlap Calculations
  ,                                       !- Polygon Clipping Algorithm
  512,                                    !- Pixel Counting Resolution
  ,                                       !- Sky Diffuse Modeling Algorithm
  No,                                     !- Output External Shading Calculation Results
  No,                                     !- Disable Self-Shading Within Shading Zone Groups
  No;                                     !- Disable Self-Shading From Shading Zone Groups to Other Zones

OS:HeatBalanceAlgorithm,
  {8827fae9-702e-4ca9-98b7-da215ccf0209}, !- Handle
  ConductionTransferFunction,             !- Algorithm
  200;                                    !- Surface Temperature Upper Limit {C}

OS:RunPeriod,
  {083775ab-82e0-4597-8450-0dddacb4c8f7}, !- Handle
  Run Period 1,                           !- Name
  1,                                      !- Begin Month
  1,                                      !- Begin Day of Month
  12,                                     !- End Month
  31,                                     !- End Day of Month
  ,                                       !- Use Weather File Holidays and Special Days
  ,                                       !- Use Weather File Daylight Saving Period
  ,                                       !- Apply Weekend Holiday Rule
  ,                                       !- Use Weather File Rain Indicators
  ,                                       !- Use Weather File Snow Indicators
  ;                                       !- Number of Times Runperiod to be Repeated

OS:LifeCycleCost:Parameters,
  {fec6c06f-75af-43ca-81ce-b4910686ad86}, !- Handle
  ,                                       !- Analysis Type
  ,                                       !- Discounting Convention
  ,                                       !- Inflation Approach
  ,                                       !- Real Discount Rate
  ,                                       !- Nominal Discount Rate
  ,                                       !- Inflation
  ,                                       !- Base Date Month
  ,                                       !- Base Date Year
  ,                                       !- Service Date Month
  ,                                       !- Service Date Year
  ;                                       !- Length of Study Period in Years

OS:YearDescription,
  {cbbcae4d-1437-402a-a9a8-7b7675ca943e}, !- Handle
  2017,                                   !- Calendar Year
  ,                                       !- Day of Week for Start Day
  ;                                       !- Is Leap Year

OS:WeatherFile,
  {eb66bcc2-2f1d-422c-b5eb-beb93bbcedc1}, !- Handle
  Buffalo Niagara Intl Ap,                !- City
  NY,                                     !- State Province Region
  USA,                                    !- Country
  TMY3,                                   !- Data Source
  725280,                                 !- WMO Number
  42.93,                                  !- Latitude {deg}
  -78.73,                                 !- Longitude {deg}
  -5,                                     !- Time Zone {hr}
  215,                                    !- Elevation {m}
  /Users/kcu/Desktop/Scripting/NREL_Work/UCI/Github/urbanopt-example-geojson-project/example_project_docker/weather/USA_NY_Buffalo-Greater.Buffalo.Intl.AP.725280_TMY3.epw, !- Url
  ;                                       !- Checksum

OS:Site:WaterMainsTemperature,
  {05f64062-9045-4632-9032-b7a56ecf4fe6}, !- Handle
  Correlation,                            !- Calculation Method
  ,                                       !- Temperature Schedule Name
  8.96666666666667,                       !- Annual Average Outdoor Air Temperature {C}
  26.2;                                   !- Maximum Difference In Monthly Average Outdoor Air Temperatures {deltaC}

OS:SizingPeriod:DesignDay,
  {67eaf123-1a73-49ee-a534-917a38412115}, !- Handle
  Buffalo Niagara Intl Ap Ann Clg .4% Condns DB=>MWB 1, !- Name
  30.3,                                   !- Maximum Dry-Bulb Temperature {C}
  9.3,                                    !- Daily Dry-Bulb Temperature Range {deltaC}
  21.8,                                   !- Humidity Indicating Conditions at Maximum Dry-Bulb
  98769,                                  !- Barometric Pressure {Pa}
  5.7,                                    !- Wind Speed {m/s}
  240,                                    !- Wind Direction {deg}
  0,                                      !- Sky Clearness
  0,                                      !- Rain Indicator
  0,                                      !- Snow Indicator
  21,                                     !- Day of Month
  7,                                      !- Month
  SummerDesignDay,                        !- Day Type
  0,                                      !- Daylight Saving Time Indicator
  Wetbulb,                                !- Humidity Indicating Type
  ,                                       !- Humidity Indicating Day Schedule Name
  DefaultMultipliers,                     !- Dry-Bulb Temperature Range Modifier Type
  ,                                       !- Dry-Bulb Temperature Range Modifier Schedule Name
  ASHRAETau,                              !- Solar Model Indicator
  ,                                       !- Beam Solar Day Schedule Name
  ,                                       !- Diffuse Solar Day Schedule Name
  0.462,                                  !- ASHRAE Taub {dimensionless}
  2.001;                                  !- ASHRAE Taud {dimensionless}

OS:SizingPeriod:DesignDay,
  {91e7984c-09cb-4715-839a-f6db0eae1d4e}, !- Handle
  Buffalo Niagara Intl Ap Ann Clg .4% Condns WB=>MDB 1, !- Name
  27.8,                                   !- Maximum Dry-Bulb Temperature {C}
  9.3,                                    !- Daily Dry-Bulb Temperature Range {deltaC}
  23.8,                                   !- Humidity Indicating Conditions at Maximum Dry-Bulb
  98769,                                  !- Barometric Pressure {Pa}
  5.7,                                    !- Wind Speed {m/s}
  240,                                    !- Wind Direction {deg}
  0,                                      !- Sky Clearness
  0,                                      !- Rain Indicator
  0,                                      !- Snow Indicator
  21,                                     !- Day of Month
  7,                                      !- Month
  SummerDesignDay,                        !- Day Type
  0,                                      !- Daylight Saving Time Indicator
  Wetbulb,                                !- Humidity Indicating Type
  ,                                       !- Humidity Indicating Day Schedule Name
  DefaultMultipliers,                     !- Dry-Bulb Temperature Range Modifier Type
  ,                                       !- Dry-Bulb Temperature Range Modifier Schedule Name
  ASHRAETau,                              !- Solar Model Indicator
  ,                                       !- Beam Solar Day Schedule Name
  ,                                       !- Diffuse Solar Day Schedule Name
  0.462,                                  !- ASHRAE Taub {dimensionless}
  2.001;                                  !- ASHRAE Taud {dimensionless}

OS:SizingPeriod:DesignDay,
  {af0d6972-e3e8-4a5d-ae7e-336179e0d306}, !- Handle
  Buffalo Niagara Intl Ap Ann Htg 99.6% Condns DB 1, !- Name
  -16.3,                                  !- Maximum Dry-Bulb Temperature {C}
  0,                                      !- Daily Dry-Bulb Temperature Range {deltaC}
  -16.3,                                  !- Humidity Indicating Conditions at Maximum Dry-Bulb
  98769,                                  !- Barometric Pressure {Pa}
  5.1,                                    !- Wind Speed {m/s}
  270,                                    !- Wind Direction {deg}
  0,                                      !- Sky Clearness
  0,                                      !- Rain Indicator
  0,                                      !- Snow Indicator
  21,                                     !- Day of Month
  1,                                      !- Month
  WinterDesignDay,                        !- Day Type
  0,                                      !- Daylight Saving Time Indicator
  Wetbulb,                                !- Humidity Indicating Type
  ,                                       !- Humidity Indicating Day Schedule Name
  DefaultMultipliers,                     !- Dry-Bulb Temperature Range Modifier Type
  ,                                       !- Dry-Bulb Temperature Range Modifier Schedule Name
  ASHRAEClearSky;                         !- Solar Model Indicator

OS:ClimateZones,
  {a192c442-ce85-47d8-8962-3c1f39d3a6e3}, !- Handle
  ASHRAE,                                 !- Climate Zone Institution Name 1
  ANSI/ASHRAE Standard 169,               !- Climate Zone Document Name 1
  2006,                                   !- Climate Zone Document Year 1
  6A;                                     !- Climate Zone Value 1

OS:Rendering:Color,
  {da32cd54-7ac3-4de3-8ce5-66d765683960}, !- Handle
  StripMall Strip mall - type 1,          !- Name
  171,                                    !- Rendering Red Value
  222,                                    !- Rendering Green Value
  78;                                     !- Rendering Blue Value

OS:Rendering:Color,
  {76649b42-ffc1-416a-a353-f4254531bb7b}, !- Handle
  StripMall Strip mall - type 2,          !- Name
  171,                                    !- Rendering Red Value
  222,                                    !- Rendering Green Value
  78;                                     !- Rendering Blue Value

OS:Rendering:Color,
  {9fc8c09a-3466-4957-a6c1-8d5e0a39616b}, !- Handle
  StripMall Strip mall - type 3,          !- Name
  171,                                    !- Rendering Red Value
  222,                                    !- Rendering Green Value
  78;                                     !- Rendering Blue Value

OS:RunPeriodControl:DaylightSavingTime,
  {a7d2ceba-3e32-4335-9d95-b5c642222778}, !- Handle
  2nd Sunday in March,                    !- Start Date
  1st Sunday in November;                 !- End Date

OS:People:Definition,
  {e502d0ab-cb05-4b72-81a0-6ba9b7f64f74}, !- Handle
  StripMall Strip mall - type 1 People Definition, !- Name
  People/Area,                            !- Number of People Calculation Method
  ,                                       !- Number of People {people}
  0.0861112833336778,                     !- People per Space Floor Area {person/m2}
  ,                                       !- Space Floor Area per Person {m2/person}
  0.3,                                    !- Fraction Radiant
  ,                                       !- Sensible Heat Fraction
  ,                                       !- Carbon Dioxide Generation Rate {m3/s-W}
  Yes,                                    !- Enable ASHRAE 55 Comfort Warnings
  ZoneAveraged,                           !- Mean Radiant Temperature Calculation Type
  Fanger;                                 !- Thermal Comfort Model Type 1

OS:Schedule:Ruleset,
  {0157d63c-f4b3-4271-bb00-a9941d2fc35d}, !- Handle
  Clothing Schedule,                      !- Name
  {08c03d91-f7fa-4e86-ba99-a70594007738}, !- Schedule Type Limits Name
  {c562c39a-363d-46dc-8c05-a9de859102a8}; !- Default Day Schedule Name

OS:Schedule:Day,
  {c562c39a-363d-46dc-8c05-a9de859102a8}, !- Handle
  Clothing Schedule Default Winter Clothes, !- Name
  {08c03d91-f7fa-4e86-ba99-a70594007738}, !- Schedule Type Limits Name
  ,                                       !- Interpolate to Timestep
  24,                                     !- Hour 1
  0,                                      !- Minute 1
  1;                                      !- Value Until Time 1

OS:Schedule:Rule,
  {69a84861-d342-4b22-a945-7e944bd32695}, !- Handle
  Schedule Rule 1,                        !- Name
  {0157d63c-f4b3-4271-bb00-a9941d2fc35d}, !- Schedule Ruleset Name
  0,                                      !- Rule Order
  {f0283d98-0cfd-40c1-b0fc-d2bbe2ce9348}, !- Day Schedule Name
  ,                                       !- Apply Sunday
  ,                                       !- Apply Monday
  ,                                       !- Apply Tuesday
  ,                                       !- Apply Wednesday
  ,                                       !- Apply Thursday
  ,                                       !- Apply Friday
  ,                                       !- Apply Saturday
  DateRange,                              !- Date Specification Type
  5,                                      !- Start Month
  1,                                      !- Start Day
  9,                                      !- End Month
  30;                                     !- End Day

OS:Schedule:Day,
  {f0283d98-0cfd-40c1-b0fc-d2bbe2ce9348}, !- Handle
  Clothing Schedule Summer Clothes,       !- Name
  {08c03d91-f7fa-4e86-ba99-a70594007738}, !- Schedule Type Limits Name
  ,                                       !- Interpolate to Timestep
  24,                                     !- Hour 1
  0,                                      !- Minute 1
  0.5;                                    !- Value Until Time 1

OS:ScheduleTypeLimits,
  {08c03d91-f7fa-4e86-ba99-a70594007738}, !- Handle
  ClothingInsulation,                     !- Name
  0,                                      !- Lower Limit Value
  ,                                       !- Upper Limit Value
  Continuous,                             !- Numeric Type
  ClothingInsulation;                     !- Unit Type

OS:Schedule:Ruleset,
  {52e254fe-91e4-4145-b73f-3004cc7365bb}, !- Handle
  Air Velocity Schedule,                  !- Name
  {2d8bfc49-7aae-48a2-8988-f1d9ce1538a7}, !- Schedule Type Limits Name
  {19ea9116-c951-4a44-9dca-8c8afe1ea756}; !- Default Day Schedule Name

OS:Schedule:Day,
  {19ea9116-c951-4a44-9dca-8c8afe1ea756}, !- Handle
  Air Velocity Schedule Default,          !- Name
  {2d8bfc49-7aae-48a2-8988-f1d9ce1538a7}, !- Schedule Type Limits Name
  ,                                       !- Interpolate to Timestep
  24,                                     !- Hour 1
  0,                                      !- Minute 1
  0.2;                                    !- Value Until Time 1

OS:ScheduleTypeLimits,
  {2d8bfc49-7aae-48a2-8988-f1d9ce1538a7}, !- Handle
  Velocity,                               !- Name
  0,                                      !- Lower Limit Value
  ,                                       !- Upper Limit Value
  Continuous,                             !- Numeric Type
  Velocity;                               !- Unit Type

OS:Schedule:Ruleset,
  {8f23adf4-b62d-4a3e-987a-3d13639240ba}, !- Handle
  Work Efficiency Schedule,               !- Name
  {2da099db-432b-467e-ae0b-e7b2d47d1399}, !- Schedule Type Limits Name
  {1aea9108-c5f0-46f0-90cb-382101ecd54e}; !- Default Day Schedule Name

OS:Schedule:Day,
  {1aea9108-c5f0-46f0-90cb-382101ecd54e}, !- Handle
  Work Efficiency Schedule Default,       !- Name
  {2da099db-432b-467e-ae0b-e7b2d47d1399}, !- Schedule Type Limits Name
  ,                                       !- Interpolate to Timestep
  24,                                     !- Hour 1
  0,                                      !- Minute 1
  0;                                      !- Value Until Time 1

OS:ScheduleTypeLimits,
  {2da099db-432b-467e-ae0b-e7b2d47d1399}, !- Handle
  Fractional,                             !- Name
  0,                                      !- Lower Limit Value
  1,                                      !- Upper Limit Value
  Continuous;                             !- Numeric Type

OS:Lights:Definition,
  {078dfe48-8a1f-4b5b-9ae3-b281a9adf511}, !- Handle
  StripMall Strip mall - type 1 Lights Definition, !- Name
  Watts/Area,                             !- Design Level Calculation Method
  ,                                       !- Lighting Level {W}
  13.4548880208872,                       !- Watts per Space Floor Area {W/m2}
  ,                                       !- Watts per Person {W/person}
  0.7,                                    !- Fraction Radiant
  0.2,                                    !- Fraction Visible
  0;                                      !- Return Air Fraction

OS:AdditionalProperties,
  {19048a1a-2219-43dd-8689-ca383068d718}, !- Handle
  {078dfe48-8a1f-4b5b-9ae3-b281a9adf511}, !- Object Name
  lpd_fraction_linear_fluorescent,        !- Feature Name 1
  Double,                                 !- Feature Data Type 1
  1;                                      !- Feature Value 1

OS:Lights:Definition,
  {80b3610e-72d9-4d0e-950e-05873cfc8b97}, !- Handle
  StripMall Strip mall - type 1 Additional Lights Definition, !- Name
  Watts/Area,                             !- Design Level Calculation Method
  ,                                       !- Lighting Level {W}
  4.12752908839151,                       !- Watts per Space Floor Area {W/m2}
  ,                                       !- Watts per Person {W/person}
  0.7,                                    !- Fraction Radiant
  0.2,                                    !- Fraction Visible
  0;                                      !- Return Air Fraction

OS:AdditionalProperties,
  {77fa8806-0eea-4a59-9723-bc3b6b3a1b1a}, !- Handle
  {80b3610e-72d9-4d0e-950e-05873cfc8b97}, !- Object Name
  lpd_fraction_linear_fluorescent,        !- Feature Name 1
  Double,                                 !- Feature Data Type 1
  0,                                      !- Feature Value 1
  lpd_fraction_compact_fluorescent,       !- Feature Name 2
  Double,                                 !- Feature Data Type 2
  0,                                      !- Feature Value 2
  lpd_fraction_high_bay,                  !- Feature Name 3
  Double,                                 !- Feature Data Type 3
  0,                                      !- Feature Value 3
  lpd_fraction_specialty_lighting,        !- Feature Name 4
  Double,                                 !- Feature Data Type 4
  1,                                      !- Feature Value 4
  lpd_fraction_exit_lighting,             !- Feature Name 5
  Double,                                 !- Feature Data Type 5
  0;                                      !- Feature Value 5

OS:ElectricEquipment:Definition,
  {521ff115-de7c-4026-8bc5-5d4c78a79e55}, !- Handle
  StripMall Strip mall - type 1 Elec Equip Definition, !- Name
  Watts/Area,                             !- Design Level Calculation Method
  ,                                       !- Design Level {W}
  4.30556416668389,                       !- Watts per Space Floor Area {W/m2}
  ,                                       !- Watts per Person {W/person}
  0,                                      !- Fraction Latent
  0.5,                                    !- Fraction Radiant
  0;                                      !- Fraction Lost

OS:DesignSpecification:OutdoorAir,
  {c56b1c5f-128a-485b-8f8c-ea1f7b0e5cb0}, !- Handle
  StripMall Strip mall - type 1 Ventilation, !- Name
  Sum,                                    !- Outdoor Air Method
  ,                                       !- Outdoor Air Flow per Person {m3/s-person}
  0.0011811,                              !- Outdoor Air Flow per Floor Area {m3/s-m2}
  ,                                       !- Outdoor Air Flow Rate {m3/s}
  ,                                       !- Outdoor Air Flow Air Changes per Hour {1/hr}
  ;                                       !- Outdoor Air Flow Rate Fraction Schedule Name

OS:DefaultScheduleSet,
  {89b0f915-6b29-4dd1-8f84-87fc52aeb64a}, !- Handle
  StripMall Strip mall - type 1 Schedule Set, !- Name
  ,                                       !- Hours of Operation Schedule Name
  {0fe987fd-5a79-4587-90b8-de8d33172a16}, !- Number of People Schedule Name
  {37155dff-c853-4263-a863-1bc3c13b2b4d}, !- People Activity Level Schedule Name
  {ae308770-505e-49e4-b18a-807e1f0b077f}, !- Lighting Schedule Name
  {809e1501-1c52-4641-a468-b8dab39be598}, !- Electric Equipment Schedule Name
  ,                                       !- Gas Equipment Schedule Name
  ,                                       !- Hot Water Equipment Schedule Name
  {f93047f3-b48c-42f7-ac93-3d03c00ec22d}, !- Infiltration Schedule Name
  ,                                       !- Steam Equipment Schedule Name
  ;                                       !- Other Equipment Schedule Name

OS:Schedule:Ruleset,
  {0fe987fd-5a79-4587-90b8-de8d33172a16}, !- Handle
  RetailStripmall Type1_OCC_SCH,          !- Name
  {2da099db-432b-467e-ae0b-e7b2d47d1399}, !- Schedule Type Limits Name
  {fa20745b-6e20-407b-943c-bc7bc70f0f62}, !- Default Day Schedule Name
  {096d797c-c3ab-4a0e-bd73-60e09f0ec6c1}, !- Summer Design Day Schedule Name
  {86dafe06-23b4-4f76-9b7d-be53b1738b7f}; !- Winter Design Day Schedule Name

OS:Schedule:Day,
  {fa20745b-6e20-407b-943c-bc7bc70f0f62}, !- Handle
  RetailStripmall Type1_OCC_SCH Default,  !- Name
  {2da099db-432b-467e-ae0b-e7b2d47d1399}, !- Schedule Type Limits Name
  ,                                       !- Interpolate to Timestep
  8,                                      !- Hour 1
  0,                                      !- Minute 1
  0,                                      !- Value Until Time 1
  10,                                     !- Hour 2
  0,                                      !- Minute 2
  0.05,                                   !- Value Until Time 2
  11,                                     !- Hour 3
  0,                                      !- Minute 3
  0.1,                                    !- Value Until Time 3
  12,                                     !- Hour 4
  0,                                      !- Minute 4
  0.2,                                    !- Value Until Time 4
  13,                                     !- Hour 5
  0,                                      !- Minute 5
  0.4,                                    !- Value Until Time 5
  14,                                     !- Hour 6
  0,                                      !- Minute 6
  0.6,                                    !- Value Until Time 6
  16,                                     !- Hour 7
  0,                                      !- Minute 7
  0.4,                                    !- Value Until Time 7
  17,                                     !- Hour 8
  0,                                      !- Minute 8
  0.3,                                    !- Value Until Time 8
  19,                                     !- Hour 9
  0,                                      !- Minute 9
  0.6,                                    !- Value Until Time 9
  21,                                     !- Hour 10
  0,                                      !- Minute 10
  0.4,                                    !- Value Until Time 10
  22,                                     !- Hour 11
  0,                                      !- Minute 11
  0.3,                                    !- Value Until Time 11
  23,                                     !- Hour 12
  0,                                      !- Minute 12
  0.2,                                    !- Value Until Time 12
  24,                                     !- Hour 13
  0,                                      !- Minute 13
  0.05;                                   !- Value Until Time 13

OS:Schedule:Rule,
  {520691e8-b2fb-4524-b8de-ee775aa2a796}, !- Handle
  Schedule Rule 2,                        !- Name
  {0fe987fd-5a79-4587-90b8-de8d33172a16}, !- Schedule Ruleset Name
  1,                                      !- Rule Order
  {4a194346-00b9-4819-ae55-0d9b8470d7b5}, !- Day Schedule Name
  ,                                       !- Apply Sunday
  Yes,                                    !- Apply Monday
  Yes,                                    !- Apply Tuesday
  Yes,                                    !- Apply Wednesday
  Yes,                                    !- Apply Thursday
  ,                                       !- Apply Friday
  ,                                       !- Apply Saturday
  DateRange,                              !- Date Specification Type
  1,                                      !- Start Month
  1,                                      !- Start Day
  12,                                     !- End Month
  31;                                     !- End Day

OS:Schedule:Day,
  {4a194346-00b9-4819-ae55-0d9b8470d7b5}, !- Handle
  RetailStripmall Type1_OCC_SCH Mon|Tue|Wed|Thu Day, !- Name
  {2da099db-432b-467e-ae0b-e7b2d47d1399}, !- Schedule Type Limits Name
  ,                                       !- Interpolate to Timestep
  8,                                      !- Hour 1
  0,                                      !- Minute 1
  0,                                      !- Value Until Time 1
  10,                                     !- Hour 2
  0,                                      !- Minute 2
  0.05,                                   !- Value Until Time 2
  12,                                     !- Hour 3
  0,                                      !- Minute 3
  0.1,                                    !- Value Until Time 3
  13,                                     !- Hour 4
  0,                                      !- Minute 4
  0.2,                                    !- Value Until Time 4
  15,                                     !- Hour 5
  0,                                      !- Minute 5
  0.4,                                    !- Value Until Time 5
  17,                                     !- Hour 6
  0,                                      !- Minute 6
  0.25,                                   !- Value Until Time 6
  20,                                     !- Hour 7
  0,                                      !- Minute 7
  0.5,                                    !- Value Until Time 7
  23,                                     !- Hour 8
  0,                                      !- Minute 8
  0.3,                                    !- Value Until Time 8
  24,                                     !- Hour 9
  0,                                      !- Minute 9
  0.05;                                   !- Value Until Time 9

OS:Schedule:Rule,
  {cbfe52d4-560f-4529-be13-fb50ceb31bc6}, !- Handle
  Schedule Rule 3,                        !- Name
  {0fe987fd-5a79-4587-90b8-de8d33172a16}, !- Schedule Ruleset Name
  0,                                      !- Rule Order
  {2910beae-644a-46b7-92a2-095687635515}, !- Day Schedule Name
  ,                                       !- Apply Sunday
  ,                                       !- Apply Monday
  ,                                       !- Apply Tuesday
  ,                                       !- Apply Wednesday
  ,                                       !- Apply Thursday
  Yes,                                    !- Apply Friday
  Yes,                                    !- Apply Saturday
  DateRange,                              !- Date Specification Type
  1,                                      !- Start Month
  1,                                      !- Start Day
  12,                                     !- End Month
  31;                                     !- End Day

OS:Schedule:Day,
  {2910beae-644a-46b7-92a2-095687635515}, !- Handle
  RetailStripmall Type1_OCC_SCH Sat|Fri Day, !- Name
  {2da099db-432b-467e-ae0b-e7b2d47d1399}, !- Schedule Type Limits Name
  ,                                       !- Interpolate to Timestep
  1,                                      !- Hour 1
  0,                                      !- Minute 1