
OS:Version,
  {8e5e5eaa-43d7-4c66-8ad1-0454503d2c02}, !- Handle
  3.1.0;                                  !- Version Identifier

OS:DefaultConstructionSet,
  {66dcd0c9-d508-40bf-9a9a-d5c3dc424425}, !- Handle
  Default Construction Set 1,             !- Name
  ,                                       !- Default Exterior Surface Constructions Name
  ,                                       !- Default Interior Surface Constructions Name
  ,                                       !- Default Ground Contact Surface Constructions Name
  ,                                       !- Default Exterior SubSurface Constructions Name
  ,                                       !- Default Interior SubSurface Constructions Name
  ,                                       !- Interior Partition Construction Name
  ,                                       !- Space Shading Construction Name
  ,                                       !- Building Shading Construction Name
  ,                                       !- Site Shading Construction Name
  ;                                       !- Adiabatic Surface Construction Name

OS:Building,
  {bafe7996-8c74-4c74-bedc-25abf7ddca1e}, !- Handle
  Keelson Ln 17301-e,                     !- Name
  ,                                       !- Building Sector Type
  ,                                       !- North Axis {deg}
  3,                                      !- Nominal Floor to Floor Height {m}
  ,                                       !- Space Type Name
  {66dcd0c9-d508-40bf-9a9a-d5c3dc424425}, !- Default Construction Set Name
  ,                                       !- Default Schedule Set Name
  1,                                      !- Standards Number of Stories
  1;                                      !- Standards Number of Above Ground Stories

OS:Site,
  {18693796-24c6-494c-a2e0-0be973b31ade}, !- Handle
  Site 1,                                 !- Name
  33.7107363053937,                       !- Latitude {deg}
  -117.991431322386,                      !- Longitude {deg}
  ,                                       !- Time Zone {hr}
  ,                                       !- Elevation {m}
  ;                                       !- Terrain

OS:Space,
  {95994354-c7c4-4933-94ec-70b63dff789c}, !- Handle
  Building Story 1 Space,                 !- Name
  ,                                       !- Space Type Name
  ,                                       !- Default Construction Set Name
  ,                                       !- Default Schedule Set Name
  ,                                       !- Direction of Relative North {deg}
  ,                                       !- X Origin {m}
  ,                                       !- Y Origin {m}
  ,                                       !- Z Origin {m}
  {6df387b1-8e2c-4043-b3bf-e2aac0bc33b2}, !- Building Story Name
  {5a8bb2e1-ac57-40b6-83c7-a7f1d2a83c48}; !- Thermal Zone Name

OS:Surface,
  {d2e86355-2961-432d-bf89-6404639e4421}, !- Handle
  Surface 1,                              !- Name
  Floor,                                  !- Surface Type
  ,                                       !- Construction Name
  {95994354-c7c4-4933-94ec-70b63dff789c}, !- Space Name
  Ground,                                 !- Outside Boundary Condition
  ,                                       !- Outside Boundary Condition Object
  NoSun,                                  !- Sun Exposure
  NoWind,                                 !- Wind Exposure
  ,                                       !- View Factor to Ground
  ,                                       !- Number of Vertices
  17.4042450933574, 1.58265542928859e-05, 0, !- X,Y,Z Vertex 1 {m}
  0, 0, 0,                                !- X,Y,Z Vertex 2 {m}
  1.5955237131493e-11, 9.15667959955765, 0, !- X,Y,Z Vertex 3 {m}
  17.404228439858, 9.15669542638699, 0;   !- X,Y,Z Vertex 4 {m}

OS:Surface,
  {4b1ba8ac-e83d-458d-94e0-1b4aac339c23}, !- Handle
  Surface 2,                              !- Name
  Wall,                                   !- Surface Type
  ,                                       !- Construction Name
  {95994354-c7c4-4933-94ec-70b63dff789c}, !- Space Name
  Outdoors,                               !- Outside Boundary Condition
  ,                                       !- Outside Boundary Condition Object
  SunExposed,                             !- Sun Exposure
  WindExposed,                            !- Wind Exposure
  ,                                       !- View Factor to Ground
  ,                                       !- Number of Vertices
  0, 0, 3,                                !- X,Y,Z Vertex 1 {m}
  0, 0, 0,                                !- X,Y,Z Vertex 2 {m}
  17.4042450933574, 1.58265542928859e-05, 0, !- X,Y,Z Vertex 3 {m}
  17.4042450933574, 1.58265542928859e-05, 3; !- X,Y,Z Vertex 4 {m}

OS:Surface,
  {462bb33b-6c95-4a47-b272-c7275ce6e4a6}, !- Handle
  Surface 3,                              !- Name
  Wall,                                   !- Surface Type
  ,                                       !- Construction Name
  {95994354-c7c4-4933-94ec-70b63dff789c}, !- Space Name
  Outdoors,                               !- Outside Boundary Condition
  ,                                       !- Outside Boundary Condition Object
  SunExposed,                             !- Sun Exposure
  WindExposed,                            !- Wind Exposure
  ,                                       !- View Factor to Ground
  ,                                       !- Number of Vertices
  1.5955237131493e-11, 9.15667959955765, 3, !- X,Y,Z Vertex 1 {m}
  1.5955237131493e-11, 9.15667959955765, 0, !- X,Y,Z Vertex 2 {m}
  0, 0, 0,                                !- X,Y,Z Vertex 3 {m}
  0, 0, 3;                                !- X,Y,Z Vertex 4 {m}

OS:Surface,
  {583d5f1c-a910-4081-ab71-59f6e5da90fa}, !- Handle
  Surface 4,                              !- Name
  Wall,                                   !- Surface Type
  ,                                       !- Construction Name
  {95994354-c7c4-4933-94ec-70b63dff789c}, !- Space Name
  Outdoors,                               !- Outside Boundary Condition
  ,                                       !- Outside Boundary Condition Object
  SunExposed,                             !- Sun Exposure
  WindExposed,                            !- Wind Exposure
  ,                                       !- View Factor to Ground
  ,                                       !- Number of Vertices
  17.404228439858, 9.15669542638699, 3,   !- X,Y,Z Vertex 1 {m}
  17.404228439858, 9.15669542638699, 0,   !- X,Y,Z Vertex 2 {m}
  1.5955237131493e-11, 9.15667959955765, 0, !- X,Y,Z Vertex 3 {m}
  1.5955237131493e-11, 9.15667959955765, 3; !- X,Y,Z Vertex 4 {m}

OS:Surface,
  {05faa7ce-8107-4993-b207-da62f994657e}, !- Handle
  Surface 5,                              !- Name
  Wall,                                   !- Surface Type
  ,                                       !- Construction Name
  {95994354-c7c4-4933-94ec-70b63dff789c}, !- Space Name
  Outdoors,                               !- Outside Boundary Condition
  ,                                       !- Outside Boundary Condition Object
  SunExposed,                             !- Sun Exposure
  WindExposed,                            !- Wind Exposure
  ,                                       !- View Factor to Ground
  ,                                       !- Number of Vertices
  17.4042450933574, 1.58265542928859e-05, 3, !- X,Y,Z Vertex 1 {m}
  17.4042450933574, 1.58265542928859e-05, 0, !- X,Y,Z Vertex 2 {m}
  17.404228439858, 9.15669542638699, 0,   !- X,Y,Z Vertex 3 {m}
  17.404228439858, 9.15669542638699, 3;   !- X,Y,Z Vertex 4 {m}

OS:Surface,
  {5cdc0475-6c98-409b-891c-b683a7a3c556}, !- Handle
  Surface 6,                              !- Name
  RoofCeiling,                            !- Surface Type
  ,                                       !- Construction Name
  {95994354-c7c4-4933-94ec-70b63dff789c}, !- Space Name
  Outdoors,                               !- Outside Boundary Condition
  ,                                       !- Outside Boundary Condition Object
  SunExposed,                             !- Sun Exposure
  WindExposed,                            !- Wind Exposure
  ,                                       !- View Factor to Ground
  ,                                       !- Number of Vertices
  17.404228439858, 9.15669542638699, 3,   !- X,Y,Z Vertex 1 {m}
  1.5955237131493e-11, 9.15667959955765, 3, !- X,Y,Z Vertex 2 {m}
  0, 0, 3,                                !- X,Y,Z Vertex 3 {m}
  17.4042450933574, 1.58265542928859e-05, 3; !- X,Y,Z Vertex 4 {m}

OS:BuildingStory,
  {6df387b1-8e2c-4043-b3bf-e2aac0bc33b2}, !- Handle
  Building Story 1,                       !- Name
  3,                                      !- Nominal Z Coordinate {m}
  3,                                      !- Nominal Floor to Floor Height {m}
  ,                                       !- Default Construction Set Name
  ,                                       !- Default Schedule Set Name
  ;                                       !- Group Rendering Name

OS:ThermalZone,
  {5a8bb2e1-ac57-40b6-83c7-a7f1d2a83c48}, !- Handle
  Building Story 1 ThermalZone,           !- Name
  ,                                       !- Multiplier
  ,                                       !- Ceiling Height {m}
  ,                                       !- Volume {m3}
  ,                                       !- Floor Area {m2}
  ,                                       !- Zone Inside Convection Algorithm
  ,                                       !- Zone Outside Convection Algorithm
  ,                                       !- Zone Conditioning Equipment List Name
  {eaed4ec9-099a-4f4e-9bc8-7526e02fd2f2}, !- Zone Air Inlet Port List
  {6b491cea-3396-475e-9d85-f26b72eb79d5}, !- Zone Air Exhaust Port List
  {9dc28bb1-15c0-4db4-862b-809aec070318}, !- Zone Air Node Name
  {5d2141a3-e7a1-4b0a-8f73-b9ae50567184}, !- Zone Return Air Port List
  ,                                       !- Primary Daylighting Control Name
  ,                                       !- Fraction of Zone Controlled by Primary Daylighting Control
  ,                                       !- Secondary Daylighting Control Name
  ,                                       !- Fraction of Zone Controlled by Secondary Daylighting Control
  ,                                       !- Illuminance Map Name
  ,                                       !- Group Rendering Name
  ,                                       !- Thermostat Name
  No;                                     !- Use Ideal Air Loads

OS:Node,
  {41a4672a-6d4e-49dc-ac3c-fbfca4fb7972}, !- Handle
  Node 1,                                 !- Name
  {9dc28bb1-15c0-4db4-862b-809aec070318}, !- Inlet Port
  ;                                       !- Outlet Port

OS:Connection,
  {9dc28bb1-15c0-4db4-862b-809aec070318}, !- Handle
  {3afffa0e-f82b-4c56-9b9f-733dee40348a}, !- Name
  {5a8bb2e1-ac57-40b6-83c7-a7f1d2a83c48}, !- Source Object
  11,                                     !- Outlet Port
  {41a4672a-6d4e-49dc-ac3c-fbfca4fb7972}, !- Target Object
  2;                                      !- Inlet Port

OS:PortList,
  {eaed4ec9-099a-4f4e-9bc8-7526e02fd2f2}, !- Handle
  {7998ab25-73b5-4d3e-b606-59cbce4e054b}, !- Name
  {5a8bb2e1-ac57-40b6-83c7-a7f1d2a83c48}; !- HVAC Component

OS:PortList,
  {6b491cea-3396-475e-9d85-f26b72eb79d5}, !- Handle
  {7939a8ec-66ff-4ea4-b1f9-2177e90c7c35}, !- Name
  {5a8bb2e1-ac57-40b6-83c7-a7f1d2a83c48}; !- HVAC Component

OS:PortList,
  {5d2141a3-e7a1-4b0a-8f73-b9ae50567184}, !- Handle
  {f5deeeaf-7924-458e-8c26-7613af943b82}, !- Name
  {5a8bb2e1-ac57-40b6-83c7-a7f1d2a83c48}; !- HVAC Component

OS:Sizing:Zone,
  {117fd27d-7801-4247-bd2f-3f17b3f75683}, !- Handle
  {5a8bb2e1-ac57-40b6-83c7-a7f1d2a83c48}, !- Zone or ZoneList Name
  SupplyAirTemperature,                   !- Zone Cooling Design Supply Air Temperature Input Method
  14,                                     !- Zone Cooling Design Supply Air Temperature {C}
  11.11,                                  !- Zone Cooling Design Supply Air Temperature Difference {deltaC}
  SupplyAirTemperature,                   !- Zone Heating Design Supply Air Temperature Input Method
  40,                                     !- Zone Heating Design Supply Air Temperature {C}
  11.11,                                  !- Zone Heating Design Supply Air Temperature Difference {deltaC}
  0.0085,                                 !- Zone Cooling Design Supply Air Humidity Ratio {kg-H2O/kg-air}
  0.008,                                  !- Zone Heating Design Supply Air Humidity Ratio {kg-H2O/kg-air}
  ,                                       !- Zone Heating Sizing Factor
  ,                                       !- Zone Cooling Sizing Factor
  DesignDay,                              !- Cooling Design Air Flow Method
  ,                                       !- Cooling Design Air Flow Rate {m3/s}
  ,                                       !- Cooling Minimum Air Flow per Zone Floor Area {m3/s-m2}
  ,                                       !- Cooling Minimum Air Flow {m3/s}
  ,                                       !- Cooling Minimum Air Flow Fraction
  DesignDay,                              !- Heating Design Air Flow Method
  ,                                       !- Heating Design Air Flow Rate {m3/s}
  ,                                       !- Heating Maximum Air Flow per Zone Floor Area {m3/s-m2}
  ,                                       !- Heating Maximum Air Flow {m3/s}
  ,                                       !- Heating Maximum Air Flow Fraction
  No,                                     !- Account for Dedicated Outdoor Air System
  NeutralSupplyAir,                       !- Dedicated Outdoor Air System Control Strategy
  autosize,                               !- Dedicated Outdoor Air Low Setpoint Temperature for Design {C}
  autosize;                               !- Dedicated Outdoor Air High Setpoint Temperature for Design {C}

OS:ZoneHVAC:EquipmentList,
  {8c271109-a6ab-419d-8e89-52ed51faa374}, !- Handle
  Zone HVAC Equipment List 1,             !- Name
  {5a8bb2e1-ac57-40b6-83c7-a7f1d2a83c48}; !- Thermal Zone

OS:Space,
  {bc227b3e-0f88-4afa-9b92-29a1c3e035f9}, !- Handle
  Building Barton Dr 7791 Space,          !- Name
  ,                                       !- Space Type Name
  ,                                       !- Default Construction Set Name
  ,                                       !- Default Schedule Set Name
  ,                                       !- Direction of Relative North {deg}
  ,                                       !- X Origin {m}
  ,                                       !- Y Origin {m}
  ,                                       !- Z Origin {m}
  ,                                       !- Building Story Name
  {ee4f64e2-5d94-487a-94bb-2049b2f54001}; !- Thermal Zone Name

OS:Surface,
  {12ae4663-0001-4ef3-b3ab-9982f1e5de7a}, !- Handle
  Surface 7,                              !- Name
  Floor,                                  !- Surface Type
  ,                                       !- Construction Name
  {bc227b3e-0f88-4afa-9b92-29a1c3e035f9}, !- Space Name
  Ground,                                 !- Outside Boundary Condition
  ,                                       !- Outside Boundary Condition Object
  NoSun,                                  !- Sun Exposure
  NoWind,                                 !- Wind Exposure
  ,                                       !- View Factor to Ground
  ,                                       !- Number of Vertices
  -91.6897490875813, 21.8113003971785, -3, !- X,Y,Z Vertex 1 {m}
  -91.6899340395548, 2.50804504217536, -3, !- X,Y,Z Vertex 2 {m}
  -104.991746444466, 2.50818173673352, -3, !- X,Y,Z Vertex 3 {m}
  -104.991534659885, 21.8114370913139, -3; !- X,Y,Z Vertex 4 {m}

OS:Surface,
  {8d2fc5aa-8d84-42bc-b814-25b09a1f23ff}, !- Handle
  Surface 8,                              !- Name
  Wall,                                   !- Surface Type
  ,                                       !- Construction Name
  {bc227b3e-0f88-4afa-9b92-29a1c3e035f9}, !- Space Name
  Outdoors,                               !- Outside Boundary Condition
  ,                                       !- Outside Boundary Condition Object
  SunExposed,                             !- Sun Exposure
  WindExposed,                            !- Wind Exposure
  ,                                       !- View Factor to Ground
  ,                                       !- Number of Vertices
  -91.6899340395548, 2.50804504217536, 3, !- X,Y,Z Vertex 1 {m}
  -91.6899340395548, 2.50804504217536, -3, !- X,Y,Z Vertex 2 {m}
  -91.6897490875813, 21.8113003971785, -3, !- X,Y,Z Vertex 3 {m}
  -91.6897490875813, 21.8113003971785, 3; !- X,Y,Z Vertex 4 {m}

OS:Surface,
  {825e5dff-a882-4847-b96b-3480c855ecb7}, !- Handle
  Surface 9,                              !- Name
  Wall,                                   !- Surface Type
  ,                                       !- Construction Name
  {bc227b3e-0f88-4afa-9b92-29a1c3e035f9}, !- Space Name
  Outdoors,                               !- Outside Boundary Condition
  ,                                       !- Outside Boundary Condition Object
  SunExposed,                             !- Sun Exposure
  WindExposed,                            !- Wind Exposure
  ,                                       !- View Factor to Ground
  ,                                       !- Number of Vertices
  -104.991746444466, 2.50818173673352, 3, !- X,Y,Z Vertex 1 {m}
  -104.991746444466, 2.50818173673352, -3, !- X,Y,Z Vertex 2 {m}
  -91.6899340395548, 2.50804504217536, -3, !- X,Y,Z Vertex 3 {m}
  -91.6899340395548, 2.50804504217536, 3; !- X,Y,Z Vertex 4 {m}

OS:Surface,
  {d8584f82-ef6a-4ca3-b253-e83ba40f3470}, !- Handle
  Surface 10,                             !- Name
  Wall,                                   !- Surface Type
  ,                                       !- Construction Name
  {bc227b3e-0f88-4afa-9b92-29a1c3e035f9}, !- Space Name
  Outdoors,                               !- Outside Boundary Condition
  ,                                       !- Outside Boundary Condition Object
  SunExposed,                             !- Sun Exposure
  WindExposed,                            !- Wind Exposure
  ,                                       !- View Factor to Ground
  ,                                       !- Number of Vertices
  -104.991534659885, 21.8114370913139, 3, !- X,Y,Z Vertex 1 {m}
  -104.991534659885, 21.8114370913139, -3, !- X,Y,Z Vertex 2 {m}
  -104.991746444466, 2.50818173673352, -3, !- X,Y,Z Vertex 3 {m}
  -104.991746444466, 2.50818173673352, 3; !- X,Y,Z Vertex 4 {m}

OS:Surface,
  {bec8f3be-5620-4a61-ae4b-f33e4fdd2de1}, !- Handle
  Surface 11,                             !- Name
  Wall,                                   !- Surface Type
  ,                                       !- Construction Name
  {bc227b3e-0f88-4afa-9b92-29a1c3e035f9}, !- Space Name
  Outdoors,                               !- Outside Boundary Condition
  ,                                       !- Outside Boundary Condition Object
  SunExposed,                             !- Sun Exposure
  WindExposed,                            !- Wind Exposure
  ,                                       !- View Factor to Ground
  ,                                       !- Number of Vertices
  -91.6897490875813, 21.8113003971785, 3, !- X,Y,Z Vertex 1 {m}
  -91.6897490875813, 21.8113003971785, -3, !- X,Y,Z Vertex 2 {m}
  -104.991534659885, 21.8114370913139, -3, !- X,Y,Z Vertex 3 {m}
  -104.991534659885, 21.8114370913139, 3; !- X,Y,Z Vertex 4 {m}

OS:Surface,
  {957ca1cf-8d1b-40d6-b5db-a6abea6a085c}, !- Handle
  Surface 12,                             !- Name
  RoofCeiling,                            !- Surface Type
  ,                                       !- Construction Name
  {bc227b3e-0f88-4afa-9b92-29a1c3e035f9}, !- Space Name
  Outdoors,                               !- Outside Boundary Condition
  ,                                       !- Outside Boundary Condition Object
  SunExposed,                             !- Sun Exposure
  WindExposed,                            !- Wind Exposure
  ,                                       !- View Factor to Ground
  ,                                       !- Number of Vertices
  -104.991534659885, 21.8114370913139, 3, !- X,Y,Z Vertex 1 {m}
  -104.991746444466, 2.50818173673352, 3, !- X,Y,Z Vertex 2 {m}
  -91.6899340395548, 2.50804504217536, 3, !- X,Y,Z Vertex 3 {m}
  -91.6897490875813, 21.8113003971785, 3; !- X,Y,Z Vertex 4 {m}

OS:ThermalZone,
  {ee4f64e2-5d94-487a-94bb-2049b2f54001}, !- Handle
  Building Barton Dr 7791 ThermalZone,    !- Name
  ,                                       !- Multiplier
  ,                                       !- Ceiling Height {m}
  ,                                       !- Volume {m3}
  ,                                       !- Floor Area {m2}
  ,                                       !- Zone Inside Convection Algorithm
  ,                                       !- Zone Outside Convection Algorithm
  ,                                       !- Zone Conditioning Equipment List Name
  {c191f438-91f3-4455-8395-b9557bc06d58}, !- Zone Air Inlet Port List
  {56edfa33-fa42-47ab-8b1a-32cacce2a85a}, !- Zone Air Exhaust Port List
  {79b20385-eafe-4545-94ed-dd29fbe6b2e9}, !- Zone Air Node Name
  {28568ca1-167e-411a-9696-da6cf5c1f8bb}, !- Zone Return Air Port List
  ,                                       !- Primary Daylighting Control Name
  ,                                       !- Fraction of Zone Controlled by Primary Daylighting Control
  ,                                       !- Secondary Daylighting Control Name
  ,                                       !- Fraction of Zone Controlled by Secondary Daylighting Control
  ,                                       !- Illuminance Map Name
  ,                                       !- Group Rendering Name
  ,                                       !- Thermostat Name
  No;                                     !- Use Ideal Air Loads

OS:Node,
  {171f43e3-f65c-4eaf-b069-cbea158f878d}, !- Handle
  Node 2,                                 !- Name
  {79b20385-eafe-4545-94ed-dd29fbe6b2e9}, !- Inlet Port
  ;                                       !- Outlet Port

OS:Connection,
  {79b20385-eafe-4545-94ed-dd29fbe6b2e9}, !- Handle
  {d6f60fff-d72c-4682-bd5e-7a8fbcd0002b}, !- Name
  {ee4f64e2-5d94-487a-94bb-2049b2f54001}, !- Source Object
  11,                                     !- Outlet Port
  {171f43e3-f65c-4eaf-b069-cbea158f878d}, !- Target Object
  2;                                      !- Inlet Port

OS:PortList,
  {c191f438-91f3-4455-8395-b9557bc06d58}, !- Handle
  {53966788-ed64-4151-bc80-64fc6c8efee1}, !- Name
  {ee4f64e2-5d94-487a-94bb-2049b2f54001}; !- HVAC Component

OS:PortList,
  {56edfa33-fa42-47ab-8b1a-32cacce2a85a}, !- Handle
  {7351ae3a-0da1-41ce-b5cf-c3078959d51e}, !- Name
  {ee4f64e2-5d94-487a-94bb-2049b2f54001}; !- HVAC Component

OS:PortList,
  {28568ca1-167e-411a-9696-da6cf5c1f8bb}, !- Handle
  {6f6980b9-63bd-4633-8bfd-52774efdd57d}, !- Name
  {ee4f64e2-5d94-487a-94bb-2049b2f54001}; !- HVAC Component

OS:Sizing:Zone,
  {bfde3783-aabf-4971-b348-c20b21f9d824}, !- Handle
  {ee4f64e2-5d94-487a-94bb-2049b2f54001}, !- Zone or ZoneList Name
  SupplyAirTemperature,                   !- Zone Cooling Design Supply Air Temperature Input Method
  14,                                     !- Zone Cooling Design Supply Air Temperature {C}
  11.11,                                  !- Zone Cooling Design Supply Air Temperature Difference {deltaC}
  SupplyAirTemperature,                   !- Zone Heating Design Supply Air Temperature Input Method
  40,                                     !- Zone Heating Design Supply Air Temperature {C}
  11.11,                                  !- Zone Heating Design Supply Air Temperature Difference {deltaC}
  0.0085,                                 !- Zone Cooling Design Supply Air Humidity Ratio {kg-H2O/kg-air}
  0.008,                                  !- Zone Heating Design Supply Air Humidity Ratio {kg-H2O/kg-air}
  ,                                       !- Zone Heating Sizing Factor
  ,                                       !- Zone Cooling Sizing Factor
  DesignDay,                              !- Cooling Design Air Flow Method
  ,                                       !- Cooling Design Air Flow Rate {m3/s}
  ,                                       !- Cooling Minimum Air Flow per Zone Floor Area {m3/s-m2}
  ,                                       !- Cooling Minimum Air Flow {m3/s}
  ,                                       !- Cooling Minimum Air Flow Fraction
  DesignDay,                              !- Heating Design Air Flow Method
  ,                                       !- Heating Design Air Flow Rate {m3/s}
  ,                                       !- Heating Maximum Air Flow per Zone Floor Area {m3/s-m2}
  ,                                       !- Heating Maximum Air Flow {m3/s}
  ,                                       !- Heating Maximum Air Flow Fraction
  No,                                     !- Account for Dedicated Outdoor Air System
  NeutralSupplyAir,                       !- Dedicated Outdoor Air System Control Strategy
  autosize,                               !- Dedicated Outdoor Air Low Setpoint Temperature for Design {C}
  autosize;                               !- Dedicated Outdoor Air High Setpoint Temperature for Design {C}

OS:ZoneHVAC:EquipmentList,
  {acc72b36-5301-42a3-8cdf-10eeda4be427}, !- Handle
  Zone HVAC Equipment List 2,             !- Name
  {ee4f64e2-5d94-487a-94bb-2049b2f54001}; !- Thermal Zone

OS:Space,
  {c3d7f9c6-0414-4e5c-a975-0eac03f55e58}, !- Handle
  Building Barton Dr 7792  Space,         !- Name
  ,                                       !- Space Type Name
  ,                                       !- Default Construction Set Name
  ,                                       !- Default Schedule Set Name
  ,                                       !- Direction of Relative North {deg}
  ,                                       !- X Origin {m}
  ,                                       !- Y Origin {m}
  ,                                       !- Z Origin {m}
  ,                                       !- Building Story Name
  {a8e28d81-5bbf-49df-92da-337bd7a9a9cb}; !- Thermal Zone Name

OS:Surface,
  {9887bb92-7391-4628-8754-5b5aeea67263}, !- Handle
  Surface 13,                             !- Name
  Floor,                                  !- Surface Type
  ,                                       !- Construction Name
  {c3d7f9c6-0414-4e5c-a975-0eac03f55e58}, !- Space Name
  Ground,                                 !- Outside Boundary Condition
  ,                                       !- Outside Boundary Condition Object
  NoSun,                                  !- Sun Exposure
  NoWind,                                 !- Wind Exposure
  ,                                       !- View Factor to Ground
  ,                                       !- Number of Vertices
  -91.1929062065592, -22.2761733118514, -3, !- X,Y,Z Vertex 1 {m}
  -91.1930854383643, -41.0845587600022, -3, !- X,Y,Z Vertex 2 {m}
  -102.878843028762, -41.0844402667718, -3, !- X,Y,Z Vertex 3 {m}
  -102.878640829862, -22.2760548184715, -3; !- X,Y,Z Vertex 4 {m}

OS:Surface,
  {b2e580ea-4c2c-49dc-8c2c-1cdfaa533f14}, !- Handle
  Surface 14,                             !- Name
  Wall,                                   !- Surface Type
  ,                                       !- Construction Name
  {c3d7f9c6-0414-4e5c-a975-0eac03f55e58}, !- Space Name
  Outdoors,                               !- Outside Boundary Condition
  ,                                       !- Outside Boundary Condition Object
  SunExposed,                             !- Sun Exposure
  WindExposed,                            !- Wind Exposure
  ,                                       !- View Factor to Ground
  ,                                       !- Number of Vertices
  -91.1930854383643, -41.0845587600022, 3, !- X,Y,Z Vertex 1 {m}
  -91.1930854383643, -41.0845587600022, -3, !- X,Y,Z Vertex 2 {m}
  -91.1929062065592, -22.2761733118514, -3, !- X,Y,Z Vertex 3 {m}
  -91.1929062065592, -22.2761733118514, 3; !- X,Y,Z Vertex 4 {m}

OS:Surface,
  {8193e583-4993-4280-ba1d-427f97d53208}, !- Handle
  Surface 15,                             !- Name
  Wall,                                   !- Surface Type
  ,                                       !- Construction Name
  {c3d7f9c6-0414-4e5c-a975-0eac03f55e58}, !- Space Name
  Outdoors,                               !- Outside Boundary Condition
  ,                                       !- Outside Boundary Condition Object
  SunExposed,                             !- Sun Exposure
  WindExposed,                            !- Wind Exposure
  ,                                       !- View Factor to Ground
  ,                                       !- Number of Vertices
  -102.878843028762, -41.0844402667718, 3, !- X,Y,Z Vertex 1 {m}
  -102.878843028762, -41.0844402667718, -3, !- X,Y,Z Vertex 2 {m}
  -91.1930854383643, -41.0845587600022, -3, !- X,Y,Z Vertex 3 {m}
  -91.1930854383643, -41.0845587600022, 3; !- X,Y,Z Vertex 4 {m}

OS:Surface,
  {d88142c8-0e0b-4a55-8abd-ee9e75e57251}, !- Handle
  Surface 16,                             !- Name
  Wall,                                   !- Surface Type
  ,                                       !- Construction Name
  {c3d7f9c6-0414-4e5c-a975-0eac03f55e58}, !- Space Name
  Outdoors,                               !- Outside Boundary Condition
  ,                                       !- Outside Boundary Condition Object
  SunExposed,                             !- Sun Exposure
  WindExposed,                            !- Wind Exposure
  ,                                       !- View Factor to Ground
  ,                                       !- Number of Vertices