
Version,
  9.4;                                    !- Version Identifier

Timestep,
  6;                                      !- Number of Timesteps per Hour

LifeCycleCost:Parameters,
  Life Cycle Cost Parameters,             !- Name
  EndOfYear,                              !- Discounting Convention
  ConstantDollar,                         !- Inflation Approach
  0.03,                                   !- Real Discount Rate
  ,                                       !- Nominal Discount Rate
  ,                                       !- Inflation
  ,                                       !- Base Date Month
  2011,                                   !- Base Date Year
  ,                                       !- Service Date Month
  2011,                                   !- Service Date Year
  25,                                     !- Length of Study Period in Years
  ,                                       !- Tax rate
  None;                                   !- Depreciation Method

LifeCycleCost:UsePriceEscalation,
  U.S. Avg  Commercial-Electricity,       !- Name
  Electricity,                            !- Resource
  2011,                                   !- Escalation Start Year
  January,                                !- Escalation Start Month
  0.9838,                                 !- Year Escalation 1
  0.9730,                                 !- Year Escalation 2
  0.9632,                                 !- Year Escalation 3
  0.9611,                                 !- Year Escalation 4
  0.9571,                                 !- Year Escalation 5
  0.9553,                                 !- Year Escalation 6
  0.9539,                                 !- Year Escalation 7
  0.9521,                                 !- Year Escalation 8
  0.9546,                                 !- Year Escalation 9
  0.9550,                                 !- Year Escalation 10
  0.9553,                                 !- Year Escalation 11
  0.9564,                                 !- Year Escalation 12
  0.9575,                                 !- Year Escalation 13
  0.9596,                                 !- Year Escalation 14
  0.9618,                                 !- Year Escalation 15
  0.9614,                                 !- Year Escalation 16
  0.9618,                                 !- Year Escalation 17
  0.9618,                                 !- Year Escalation 18
  0.9593,                                 !- Year Escalation 19
  0.9589,                                 !- Year Escalation 20
  0.9607,                                 !- Year Escalation 21
  0.9625,                                 !- Year Escalation 22
  0.9650,                                 !- Year Escalation 23
  0.9708,                                 !- Year Escalation 24
  0.9751,                                 !- Year Escalation 25
  0.9762,                                 !- Year Escalation 26
  0.9766,                                 !- Year Escalation 27
  0.9766,                                 !- Year Escalation 28
  0.9769,                                 !- Year Escalation 29
  0.9773;                                 !- Year Escalation 30

LifeCycleCost:UsePriceEscalation,
  U.S. Avg  Commercial-Distillate Oil,    !- Name
  FuelOilNo1,                             !- Resource
  2011,                                   !- Escalation Start Year
  January,                                !- Escalation Start Month
  0.9714,                                 !- Year Escalation 1
  0.9730,                                 !- Year Escalation 2
  0.9942,                                 !- Year Escalation 3
  1.0164,                                 !- Year Escalation 4
  1.0541,                                 !- Year Escalation 5
  1.0928,                                 !- Year Escalation 6
  1.1267,                                 !- Year Escalation 7
  1.1580,                                 !- Year Escalation 8
  1.1792,                                 !- Year Escalation 9
  1.1967,                                 !- Year Escalation 10
  1.2200,                                 !- Year Escalation 11
  1.2333,                                 !- Year Escalation 12
  1.2566,                                 !- Year Escalation 13
  1.2709,                                 !- Year Escalation 14
  1.2826,                                 !- Year Escalation 15
  1.2985,                                 !- Year Escalation 16
  1.3102,                                 !- Year Escalation 17
  1.3250,                                 !- Year Escalation 18
  1.3261,                                 !- Year Escalation 19
  1.3282,                                 !- Year Escalation 20
  1.3324,                                 !- Year Escalation 21
  1.3356,                                 !- Year Escalation 22
  1.3431,                                 !- Year Escalation 23
  1.3510,                                 !- Year Escalation 24
  1.3568,                                 !- Year Escalation 25
  1.3606,                                 !- Year Escalation 26
  1.3637,                                 !- Year Escalation 27
  1.3674,                                 !- Year Escalation 28
  1.3706,                                 !- Year Escalation 29
  1.3743;                                 !- Year Escalation 30

LifeCycleCost:UsePriceEscalation,
  U.S. Avg  Commercial-Residual Oil,      !- Name
  FuelOilNo2,                             !- Resource
  2011,                                   !- Escalation Start Year
  January,                                !- Escalation Start Month
  0.8469,                                 !- Year Escalation 1
  0.8257,                                 !- Year Escalation 2
  0.8681,                                 !- Year Escalation 3
  0.8988,                                 !- Year Escalation 4
  0.9289,                                 !- Year Escalation 5
  0.9604,                                 !- Year Escalation 6
  0.9897,                                 !- Year Escalation 7
  1.0075,                                 !- Year Escalation 8
  1.0314,                                 !- Year Escalation 9
  1.0554,                                 !- Year Escalation 10
  1.0861,                                 !- Year Escalation 11
  1.1278,                                 !- Year Escalation 12
  1.1497,                                 !- Year Escalation 13
  1.1620,                                 !- Year Escalation 14
  1.1743,                                 !- Year Escalation 15
  1.1852,                                 !- Year Escalation 16
  1.1948,                                 !- Year Escalation 17
  1.2037,                                 !- Year Escalation 18
  1.2071,                                 !- Year Escalation 19
  1.2119,                                 !- Year Escalation 20
  1.2139,                                 !- Year Escalation 21
  1.2194,                                 !- Year Escalation 22
  1.2276,                                 !- Year Escalation 23
  1.2365,                                 !- Year Escalation 24
  1.2420,                                 !- Year Escalation 25
  1.2461,                                 !- Year Escalation 26
  1.2509,                                 !- Year Escalation 27
  1.2550,                                 !- Year Escalation 28
  1.2591,                                 !- Year Escalation 29
  1.2638;                                 !- Year Escalation 30

LifeCycleCost:UsePriceEscalation,
  U.S. Avg  Commercial-Natural gas,       !- Name
  NaturalGas,                             !- Resource
  2011,                                   !- Escalation Start Year
  January,                                !- Escalation Start Month
  0.9823,                                 !- Year Escalation 1
  0.9557,                                 !- Year Escalation 2
  0.9279,                                 !- Year Escalation 3
  0.9257,                                 !- Year Escalation 4
  0.9346,                                 !- Year Escalation 5
  0.9412,                                 !- Year Escalation 6
  0.9512,                                 !- Year Escalation 7
  0.9645,                                 !- Year Escalation 8
  0.9856,                                 !- Year Escalation 9
  1.0067,                                 !- Year Escalation 10
  1.0222,                                 !- Year Escalation 11
  1.0410,                                 !- Year Escalation 12
  1.0610,                                 !- Year Escalation 13
  1.0787,                                 !- Year Escalation 14
  1.0942,                                 !- Year Escalation 15
  1.1098,                                 !- Year Escalation 16
  1.1220,                                 !- Year Escalation 17
  1.1308,                                 !- Year Escalation 18
  1.1386,                                 !- Year Escalation 19
  1.1486,                                 !- Year Escalation 20
  1.1619,                                 !- Year Escalation 21
  1.1763,                                 !- Year Escalation 22
  1.1918,                                 !- Year Escalation 23
  1.2118,                                 !- Year Escalation 24
  1.2284,                                 !- Year Escalation 25
  1.2439,                                 !- Year Escalation 26
  1.2605,                                 !- Year Escalation 27
  1.2772,                                 !- Year Escalation 28
  1.2938,                                 !- Year Escalation 29
  1.3115;                                 !- Year Escalation 30

LifeCycleCost:UsePriceEscalation,
  U.S. Avg  Commercial-Coal,              !- Name
  Coal,                                   !- Resource
  2011,                                   !- Escalation Start Year
  January,                                !- Escalation Start Month
  0.9970,                                 !- Year Escalation 1
  1.0089,                                 !- Year Escalation 2
  1.0089,                                 !- Year Escalation 3
  0.9941,                                 !- Year Escalation 4
  0.9941,                                 !- Year Escalation 5
  1.0000,                                 !- Year Escalation 6
  1.0030,                                 !- Year Escalation 7
  1.0059,                                 !- Year Escalation 8
  1.0089,                                 !- Year Escalation 9
  1.0119,                                 !- Year Escalation 10
  1.0148,                                 !- Year Escalation 11
  1.0178,                                 !- Year Escalation 12
  1.0208,                                 !- Year Escalation 13
  1.0267,                                 !- Year Escalation 14
  1.0297,                                 !- Year Escalation 15
  1.0356,                                 !- Year Escalation 16
  1.0415,                                 !- Year Escalation 17
  1.0534,                                 !- Year Escalation 18
  1.0564,                                 !- Year Escalation 19
  1.0593,                                 !- Year Escalation 20
  1.0653,                                 !- Year Escalation 21
  1.0712,                                 !- Year Escalation 22
  1.0742,                                 !- Year Escalation 23
  1.0801,                                 !- Year Escalation 24
  1.0831,                                 !- Year Escalation 25
  1.0831,                                 !- Year Escalation 26
  1.0861,                                 !- Year Escalation 27
  1.0890,                                 !- Year Escalation 28
  1.0920,                                 !- Year Escalation 29
  1.0950;                                 !- Year Escalation 30

Building,
  Keelson Ln 17301-e,                     !- Name
  ,                                       !- North Axis {deg}
  ,                                       !- Terrain
  ,                                       !- Loads Convergence Tolerance Value {W}
  ,                                       !- Temperature Convergence Tolerance Value {deltaC}
  ,                                       !- Solar Distribution
  ,                                       !- Maximum Number of Warmup Days
  ;                                       !- Minimum Number of Warmup Days

Shading:Building:Detailed,
  Shading Surface 187,                    !- Name
  ,                                       !- Transmittance Schedule Name
  ,                                       !- Number of Vertices
  -297.898909975693, -79.9658417589363, -3, !- X,Y,Z Vertex 1 {m}
  -298.147798563559, -88.1326772335219, -3, !- X,Y,Z Vertex 2 {m}
  -306.104090240513, -87.8849458444086, -3, !- X,Y,Z Vertex 3 {m}
  -306.1043435494, -95.8043153572116, -3, !- X,Y,Z Vertex 4 {m}
  -319.530618135745, -96.0513568768653, -3, !- X,Y,Z Vertex 5 {m}
  -319.778715180952, -79.9651356400433, -3; !- X,Y,Z Vertex 6 {m}

Shading:Building:Detailed,
  Shading Surface 188,                    !- Name
  ,                                       !- Transmittance Schedule Name
  ,                                       !- Number of Vertices
  -298.147798563559, -88.1326772335219, 3, !- X,Y,Z Vertex 1 {m}
  -298.147798563559, -88.1326772335219, -3, !- X,Y,Z Vertex 2 {m}
  -297.898909975693, -79.9658417589363, -3, !- X,Y,Z Vertex 3 {m}
  -297.898909975693, -79.9658417589363, 3; !- X,Y,Z Vertex 4 {m}

Shading:Building:Detailed,
  Shading Surface 189,                    !- Name
  ,                                       !- Transmittance Schedule Name
  ,                                       !- Number of Vertices
  -306.104090240513, -87.8849458444086, 3, !- X,Y,Z Vertex 1 {m}
  -306.104090240513, -87.8849458444086, -3, !- X,Y,Z Vertex 2 {m}
  -298.147798563559, -88.1326772335219, -3, !- X,Y,Z Vertex 3 {m}
  -298.147798563559, -88.1326772335219, 3; !- X,Y,Z Vertex 4 {m}

Shading:Building:Detailed,
  Shading Surface 190,                    !- Name
  ,                                       !- Transmittance Schedule Name
  ,                                       !- Number of Vertices
  -306.1043435494, -95.8043153572116, 3,  !- X,Y,Z Vertex 1 {m}
  -306.1043435494, -95.8043153572116, -3, !- X,Y,Z Vertex 2 {m}
  -306.104090240513, -87.8849458444086, -3, !- X,Y,Z Vertex 3 {m}
  -306.104090240513, -87.8849458444086, 3; !- X,Y,Z Vertex 4 {m}

Shading:Building:Detailed,
  Shading Surface 191,                    !- Name
  ,                                       !- Transmittance Schedule Name
  ,                                       !- Number of Vertices
  -319.530618135745, -96.0513568768653, 3, !- X,Y,Z Vertex 1 {m}
  -319.530618135745, -96.0513568768653, -3, !- X,Y,Z Vertex 2 {m}
  -306.1043435494, -95.8043153572116, -3, !- X,Y,Z Vertex 3 {m}
  -306.1043435494, -95.8043153572116, 3;  !- X,Y,Z Vertex 4 {m}

Shading:Building:Detailed,
  Shading Surface 192,                    !- Name
  ,                                       !- Transmittance Schedule Name
  ,                                       !- Number of Vertices
  -319.778715180952, -79.9651356400433, 3, !- X,Y,Z Vertex 1 {m}
  -319.778715180952, -79.9651356400433, -3, !- X,Y,Z Vertex 2 {m}
  -319.530618135745, -96.0513568768653, -3, !- X,Y,Z Vertex 3 {m}
  -319.530618135745, -96.0513568768653, 3; !- X,Y,Z Vertex 4 {m}

Shading:Building:Detailed,
  Shading Surface 193,                    !- Name
  ,                                       !- Transmittance Schedule Name
  ,                                       !- Number of Vertices
  -297.898909975693, -79.9658417589363, 3, !- X,Y,Z Vertex 1 {m}
  -297.898909975693, -79.9658417589363, -3, !- X,Y,Z Vertex 2 {m}
  -319.778715180952, -79.9651356400433, -3, !- X,Y,Z Vertex 3 {m}
  -319.778715180952, -79.9651356400433, 3; !- X,Y,Z Vertex 4 {m}

Shading:Building:Detailed,
  Shading Surface 194,                    !- Name
  ,                                       !- Transmittance Schedule Name
  ,                                       !- Number of Vertices
  -319.778715180952, -79.9651356400433, 3, !- X,Y,Z Vertex 1 {m}
  -319.530618135745, -96.0513568768653, 3, !- X,Y,Z Vertex 2 {m}
  -306.1043435494, -95.8043153572116, 3,  !- X,Y,Z Vertex 3 {m}
  -306.104090240513, -87.8849458444086, 3, !- X,Y,Z Vertex 4 {m}
  -298.147798563559, -88.1326772335219, 3, !- X,Y,Z Vertex 5 {m}
  -297.898909975693, -79.9658417589363, 3; !- X,Y,Z Vertex 6 {m}

Shading:Building:Detailed,
  Shading Surface 55,                     !- Name
  ,                                       !- Transmittance Schedule Name
  ,                                       !- Number of Vertices
  -116.055642681322, 21.3166100939789, 3, !- X,Y,Z Vertex 1 {m}
  -116.055642681322, 21.3166100939789, -3, !- X,Y,Z Vertex 2 {m}
  -128.487218623705, 21.3167689332767, -3, !- X,Y,Z Vertex 3 {m}
  -128.487218623705, 21.3167689332767, 3; !- X,Y,Z Vertex 4 {m}

Shading:Building:Detailed,
  Shading Surface 56,                     !- Name
  ,                                       !- Transmittance Schedule Name
  ,                                       !- Number of Vertices
  -128.487218623705, 21.3167689332767, 3, !- X,Y,Z Vertex 1 {m}
  -128.487218623705, 21.3167689332767, -3, !- X,Y,Z Vertex 2 {m}
  -128.487489431796, 1.14733992588796, -3, !- X,Y,Z Vertex 3 {m}
  -128.487489431796, 1.14733992588796, 3; !- X,Y,Z Vertex 4 {m}

Shading:Building:Detailed,
  Shading Surface 57,                     !- Name
  ,                                       !- Transmittance Schedule Name
  ,                                       !- Number of Vertices
  -128.487489431796, 1.14733992588796, 3, !- X,Y,Z Vertex 1 {m}
  -128.487489431796, 1.14733992588796, -3, !- X,Y,Z Vertex 2 {m}
  -116.055887287586, 1.14718108623708, -3, !- X,Y,Z Vertex 3 {m}
  -116.055887287586, 1.14718108623708, 3; !- X,Y,Z Vertex 4 {m}

Shading:Building:Detailed,
  Shading Surface 58,                     !- Name
  ,                                       !- Transmittance Schedule Name
  ,                                       !- Number of Vertices
  -116.055887287586, 1.14718108623708, 3, !- X,Y,Z Vertex 1 {m}
  -116.055887287586, 1.14718108623708, -3, !- X,Y,Z Vertex 2 {m}
  -116.055642681322, 21.3166100939789, -3, !- X,Y,Z Vertex 3 {m}
  -116.055642681322, 21.3166100939789, 3; !- X,Y,Z Vertex 4 {m}

Shading:Building:Detailed,
  Shading Surface 59,                     !- Name
  ,                                       !- Transmittance Schedule Name
  ,                                       !- Number of Vertices
  -116.055642681322, 21.3166100939789, -3, !- X,Y,Z Vertex 1 {m}
  -116.055887287586, 1.14718108623708, -3, !- X,Y,Z Vertex 2 {m}
  -128.487489431796, 1.14733992588796, -3, !- X,Y,Z Vertex 3 {m}
  -128.487218623705, 21.3167689332767, -3; !- X,Y,Z Vertex 4 {m}

Shading:Building:Detailed,
  Shading Surface 60,                     !- Name
  ,                                       !- Transmittance Schedule Name
  ,                                       !- Number of Vertices
  -128.487218623705, 21.3167689332767, 3, !- X,Y,Z Vertex 1 {m}
  -128.487489431796, 1.14733992588796, 3, !- X,Y,Z Vertex 2 {m}
  -116.055887287586, 1.14718108623708, 3, !- X,Y,Z Vertex 3 {m}
  -116.055642681322, 21.3166100939789, 3; !- X,Y,Z Vertex 4 {m}

Shading:Building:Detailed,
  Shading Surface 49,                     !- Name
  ,                                       !- Transmittance Schedule Name
  ,                                       !- Number of Vertices
  -115.683215467014, -21.7039481530338, -3, !- X,Y,Z Vertex 1 {m}
  -115.683452737996, -41.331773044121, -3, !- X,Y,Z Vertex 2 {m}
  -128.568162017313, -41.3316086121521, -3, !- X,Y,Z Vertex 3 {m}
  -128.567898319534, -21.7037837211993, -3; !- X,Y,Z Vertex 4 {m}

Shading:Building:Detailed,
  Shading Surface 50,                     !- Name
  ,                                       !- Transmittance Schedule Name
  ,                                       !- Number of Vertices
  -115.683215467014, -21.7039481530338, 3, !- X,Y,Z Vertex 1 {m}
  -115.683215467014, -21.7039481530338, -3, !- X,Y,Z Vertex 2 {m}
  -128.567898319534, -21.7037837211993, -3, !- X,Y,Z Vertex 3 {m}
  -128.567898319534, -21.7037837211993, 3; !- X,Y,Z Vertex 4 {m}

Shading:Building:Detailed,
  Shading Surface 51,                     !- Name
  ,                                       !- Transmittance Schedule Name
  ,                                       !- Number of Vertices
  -128.567898319534, -21.7037837211993, 3, !- X,Y,Z Vertex 1 {m}
  -128.567898319534, -21.7037837211993, -3, !- X,Y,Z Vertex 2 {m}
  -128.568162017313, -41.3316086121521, -3, !- X,Y,Z Vertex 3 {m}
  -128.568162017313, -41.3316086121521, 3; !- X,Y,Z Vertex 4 {m}

Shading:Building:Detailed,
  Shading Surface 52,                     !- Name
  ,                                       !- Transmittance Schedule Name
  ,                                       !- Number of Vertices
  -128.567898319534, -21.7037837211993, 3, !- X,Y,Z Vertex 1 {m}
  -128.568162017313, -41.3316086121521, 3, !- X,Y,Z Vertex 2 {m}
  -115.683452737996, -41.331773044121, 3, !- X,Y,Z Vertex 3 {m}
  -115.683215467014, -21.7039481530338, 3; !- X,Y,Z Vertex 4 {m}

Shading:Building:Detailed,
  Shading Surface 53,                     !- Name
  ,                                       !- Transmittance Schedule Name
  ,                                       !- Number of Vertices
  -115.683452737996, -41.331773044121, 3, !- X,Y,Z Vertex 1 {m}
  -115.683452737996, -41.331773044121, -3, !- X,Y,Z Vertex 2 {m}
  -115.683215467014, -21.7039481530338, -3, !- X,Y,Z Vertex 3 {m}
  -115.683215467014, -21.7039481530338, 3; !- X,Y,Z Vertex 4 {m}

Shading:Building:Detailed,
  Shading Surface 54,                     !- Name
  ,                                       !- Transmittance Schedule Name
  ,                                       !- Number of Vertices
  -128.568162017313, -41.3316086121521, 3, !- X,Y,Z Vertex 1 {m}
  -128.568162017313, -41.3316086121521, -3, !- X,Y,Z Vertex 2 {m}
  -115.683452737996, -41.331773044121, -3, !- X,Y,Z Vertex 3 {m}
  -115.683452737996, -41.331773044121, 3; !- X,Y,Z Vertex 4 {m}

Shading:Building:Detailed,
  Shading Surface 1,                      !- Name
  ,                                       !- Transmittance Schedule Name
  ,                                       !- Number of Vertices
  -104.991534659885, 21.8114370913139, 3, !- X,Y,Z Vertex 1 {m}
  -104.991534659885, 21.8114370913139, -3, !- X,Y,Z Vertex 2 {m}
  -104.991746444466, 2.50818173673352, -3, !- X,Y,Z Vertex 3 {m}
  -104.991746444466, 2.50818173673352, 3; !- X,Y,Z Vertex 4 {m}

Shading:Building:Detailed,
  Shading Surface 2,                      !- Name
  ,                                       !- Transmittance Schedule Name
  ,                                       !- Number of Vertices
  -104.991746444466, 2.50818173673352, 3, !- X,Y,Z Vertex 1 {m}
  -104.991746444466, 2.50818173673352, -3, !- X,Y,Z Vertex 2 {m}
  -91.6899340395548, 2.50804504217536, -3, !- X,Y,Z Vertex 3 {m}
  -91.6899340395548, 2.50804504217536, 3; !- X,Y,Z Vertex 4 {m}

Shading:Building:Detailed,
  Shading Surface 3,                      !- Name
  ,                                       !- Transmittance Schedule Name
  ,                                       !- Number of Vertices
  -91.6899340395548, 2.50804504217536, 3, !- X,Y,Z Vertex 1 {m}
  -91.6899340395548, 2.50804504217536, -3, !- X,Y,Z Vertex 2 {m}
  -91.6897490875813, 21.8113003971785, -3, !- X,Y,Z Vertex 3 {m}
  -91.6897490875813, 21.8113003971785, 3; !- X,Y,Z Vertex 4 {m}

Shading:Building:Detailed,
  Shading Surface 4,                      !- Name
  ,                                       !- Transmittance Schedule Name
  ,                                       !- Number of Vertices
  -91.6897490875813, 21.8113003971785, 3, !- X,Y,Z Vertex 1 {m}
  -91.6897490875813, 21.8113003971785, -3, !- X,Y,Z Vertex 2 {m}
  -104.991534659885, 21.8114370913139, -3, !- X,Y,Z Vertex 3 {m}
  -104.991534659885, 21.8114370913139, 3; !- X,Y,Z Vertex 4 {m}

Shading:Building:Detailed,
  Shading Surface 5,                      !- Name
  ,                                       !- Transmittance Schedule Name
  ,                                       !- Number of Vertices
  -91.6897490875813, 21.8113003971785, -3, !- X,Y,Z Vertex 1 {m}
  -91.6899340395548, 2.50804504217536, -3, !- X,Y,Z Vertex 2 {m}
  -104.991746444466, 2.50818173673352, -3, !- X,Y,Z Vertex 3 {m}
  -104.991534659885, 21.8114370913139, -3; !- X,Y,Z Vertex 4 {m}

Shading:Building:Detailed,
  Shading Surface 6,                      !- Name
  ,                                       !- Transmittance Schedule Name
  ,                                       !- Number of Vertices
  -104.991534659885, 21.8114370913139, 3, !- X,Y,Z Vertex 1 {m}
  -104.991746444466, 2.50818173673352, 3, !- X,Y,Z Vertex 2 {m}
  -91.6899340395548, 2.50804504217536, 3, !- X,Y,Z Vertex 3 {m}
  -91.6897490875813, 21.8113003971785, 3; !- X,Y,Z Vertex 4 {m}

Shading:Building:Detailed,
  Shading Surface 10,                     !- Name
  ,                                       !- Transmittance Schedule Name
  ,                                       !- Number of Vertices
  -102.878640829862, -22.2760548184715, 3, !- X,Y,Z Vertex 1 {m}
  -102.878843028762, -41.0844402667718, 3, !- X,Y,Z Vertex 2 {m}
  -91.1930854383643, -41.0845587600022, 3, !- X,Y,Z Vertex 3 {m}
  -91.1929062065592, -22.2761733118514, 3; !- X,Y,Z Vertex 4 {m}

Shading:Building:Detailed,
  Shading Surface 11,                     !- Name
  ,                                       !- Transmittance Schedule Name
  ,                                       !- Number of Vertices
  -91.1929062065592, -22.2761733118514, -3, !- X,Y,Z Vertex 1 {m}
  -91.1930854383643, -41.0845587600022, -3, !- X,Y,Z Vertex 2 {m}
  -102.878843028762, -41.0844402667718, -3, !- X,Y,Z Vertex 3 {m}
  -102.878640829862, -22.2760548184715, -3; !- X,Y,Z Vertex 4 {m}

Shading:Building:Detailed,
  Shading Surface 12,                     !- Name
  ,                                       !- Transmittance Schedule Name
  ,                                       !- Number of Vertices
  -91.1930854383643, -41.0845587600022, 3, !- X,Y,Z Vertex 1 {m}
  -91.1930854383643, -41.0845587600022, -3, !- X,Y,Z Vertex 2 {m}
  -91.1929062065592, -22.2761733118514, -3, !- X,Y,Z Vertex 3 {m}
  -91.1929062065592, -22.2761733118514, 3; !- X,Y,Z Vertex 4 {m}

Shading:Building:Detailed,
  Shading Surface 7,                      !- Name
  ,                                       !- Transmittance Schedule Name
  ,                                       !- Number of Vertices
  -102.878640829862, -22.2760548184715, 3, !- X,Y,Z Vertex 1 {m}
  -102.878640829862, -22.2760548184715, -3, !- X,Y,Z Vertex 2 {m}
  -102.878843028762, -41.0844402667718, -3, !- X,Y,Z Vertex 3 {m}
  -102.878843028762, -41.0844402667718, 3; !- X,Y,Z Vertex 4 {m}

Shading:Building:Detailed,
  Shading Surface 8,                      !- Name
  ,                                       !- Transmittance Schedule Name
  ,                                       !- Number of Vertices
  -91.1929062065592, -22.2761733118514, 3, !- X,Y,Z Vertex 1 {m}
  -91.1929062065592, -22.2761733118514, -3, !- X,Y,Z Vertex 2 {m}
  -102.878640829862, -22.2760548184715, -3, !- X,Y,Z Vertex 3 {m}
  -102.878640829862, -22.2760548184715, 3; !- X,Y,Z Vertex 4 {m}

Shading:Building:Detailed,
  Shading Surface 9,                      !- Name
  ,                                       !- Transmittance Schedule Name
  ,                                       !- Number of Vertices
  -102.878843028762, -41.0844402667718, 3, !- X,Y,Z Vertex 1 {m}
  -102.878843028762, -41.0844402667718, -3, !- X,Y,Z Vertex 2 {m}
  -91.1930854383643, -41.0845587600022, -3, !- X,Y,Z Vertex 3 {m}
  -91.1930854383643, -41.0845587600022, 3; !- X,Y,Z Vertex 4 {m}

Shading:Building:Detailed,
  Shading Surface 13,                     !- Name
  ,                                       !- Transmittance Schedule Name
  ,                                       !- Number of Vertices
  -80.6256533230729, 21.0687685995591, -3, !- X,Y,Z Vertex 1 {m}
  -80.6258055319281, 3.0029011744581, -3, !- X,Y,Z Vertex 2 {m}
  -90.9440333140581, 3.00299367027602, -3, !- X,Y,Z Vertex 3 {m}
  -90.9438616265439, 21.068861095529, -3; !- X,Y,Z Vertex 4 {m}

Shading:Building:Detailed,
  Shading Surface 14,                     !- Name
  ,                                       !- Transmittance Schedule Name
  ,                                       !- Number of Vertices
  -90.9440333140581, 3.00299367027602, 3, !- X,Y,Z Vertex 1 {m}
  -90.9440333140581, 3.00299367027602, -3, !- X,Y,Z Vertex 2 {m}
  -80.6258055319281, 3.0029011744581, -3, !- X,Y,Z Vertex 3 {m}
  -80.6258055319281, 3.0029011744581, 3;  !- X,Y,Z Vertex 4 {m}

Shading:Building:Detailed,
  Shading Surface 15,                     !- Name
  ,                                       !- Transmittance Schedule Name
  ,                                       !- Number of Vertices
  -80.6258055319281, 3.0029011744581, 3,  !- X,Y,Z Vertex 1 {m}
  -80.6258055319281, 3.0029011744581, -3, !- X,Y,Z Vertex 2 {m}
  -80.6256533230729, 21.0687685995591, -3, !- X,Y,Z Vertex 3 {m}
  -80.6256533230729, 21.0687685995591, 3; !- X,Y,Z Vertex 4 {m}

Shading:Building:Detailed,
  Shading Surface 16,                     !- Name
  ,                                       !- Transmittance Schedule Name
  ,                                       !- Number of Vertices
  -90.9438616265439, 21.068861095529, 3,  !- X,Y,Z Vertex 1 {m}
  -90.9438616265439, 21.068861095529, -3, !- X,Y,Z Vertex 2 {m}
  -90.9440333140581, 3.00299367027602, -3, !- X,Y,Z Vertex 3 {m}
  -90.9440333140581, 3.00299367027602, 3; !- X,Y,Z Vertex 4 {m}

Shading:Building:Detailed,
  Shading Surface 17,                     !- Name
  ,                                       !- Transmittance Schedule Name