
OS:Version,
  {8e5e5eaa-43d7-4c66-8ad1-0454503d2c02}, !- Handle
  3.1.0;                                  !- Version Identifier

OS:DefaultConstructionSet,
  {66dcd0c9-d508-40bf-9a9a-d5c3dc424425}, !- Handle
  Default Construction Set 1,             !- Name
  ,                                       !- Default Exterior Surface Constructions Name
  ,                                       !- Default Interior Surface Constructions Name
  ,                                       !- Default Ground Contact Surface Constructions Name
  ,                                       !- Default Exterior SubSurface Constructions Name
  ,                                       !- Default Interior SubSurface Constructions Name
  ,                                       !- Interior Partition Construction Name
  ,                                       !- Space Shading Construction Name
  ,                                       !- Building Shading Construction Name
  ,                                       !- Site Shading Construction Name
  ;                                       !- Adiabatic Surface Construction Name

OS:Building,
  {bafe7996-8c74-4c74-bedc-25abf7ddca1e}, !- Handle
  Keelson Ln 17301-e,                     !- Name
  ,                                       !- Building Sector Type
  ,                                       !- North Axis {deg}
  3,                                      !- Nominal Floor to Floor Height {m}
  ,                                       !- Space Type Name
  {66dcd0c9-d508-40bf-9a9a-d5c3dc424425}, !- Default Construction Set Name
  ,                                       !- Default Schedule Set Name
  1,                                      !- Standards Number of Stories
  1;                                      !- Standards Number of Above Ground Stories

OS:Site,
  {18693796-24c6-494c-a2e0-0be973b31ade}, !- Handle
  Site 1,                                 !- Name
  33.7107363053937,                       !- Latitude {deg}
  -117.991431322386,                      !- Longitude {deg}
  ,                                       !- Time Zone {hr}
  ,                                       !- Elevation {m}
  ;                                       !- Terrain

OS:Space,
  {95994354-c7c4-4933-94ec-70b63dff789c}, !- Handle
  Building Story 1 Space,                 !- Name
  ,                                       !- Space Type Name
  ,                                       !- Default Construction Set Name
  ,                                       !- Default Schedule Set Name
  ,                                       !- Direction of Relative North {deg}
  ,                                       !- X Origin {m}
  ,                                       !- Y Origin {m}
  ,                                       !- Z Origin {m}
  {6df387b1-8e2c-4043-b3bf-e2aac0bc33b2}, !- Building Story Name
  {5a8bb2e1-ac57-40b6-83c7-a7f1d2a83c48}; !- Thermal Zone Name

OS:Surface,
  {d2e86355-2961-432d-bf89-6404639e4421}, !- Handle
  Surface 1,                              !- Name
  Floor,                                  !- Surface Type
  ,                                       !- Construction Name
  {95994354-c7c4-4933-94ec-70b63dff789c}, !- Space Name
  Ground,                                 !- Outside Boundary Condition
  ,                                       !- Outside Boundary Condition Object
  NoSun,                                  !- Sun Exposure
  NoWind,                                 !- Wind Exposure
  ,                                       !- View Factor to Ground
  ,                                       !- Number of Vertices
  17.4042450933574, 1.58265542928859e-05, 0, !- X,Y,Z Vertex 1 {m}
  0, 0, 0,                                !- X,Y,Z Vertex 2 {m}
  1.5955237131493e-11, 9.15667959955765, 0, !- X,Y,Z Vertex 3 {m}
  17.404228439858, 9.15669542638699, 0;   !- X,Y,Z Vertex 4 {m}

OS:Surface,
  {4b1ba8ac-e83d-458d-94e0-1b4aac339c23}, !- Handle
  Surface 2,                              !- Name
  Wall,                                   !- Surface Type
  ,                                       !- Construction Name
  {95994354-c7c4-4933-94ec-70b63dff789c}, !- Space Name
  Outdoors,                               !- Outside Boundary Condition
  ,                                       !- Outside Boundary Condition Object
  SunExposed,                             !- Sun Exposure
  WindExposed,                            !- Wind Exposure
  ,                                       !- View Factor to Ground
  ,                                       !- Number of Vertices
  0, 0, 3,                                !- X,Y,Z Vertex 1 {m}
  0, 0, 0,                                !- X,Y,Z Vertex 2 {m}
  17.4042450933574, 1.58265542928859e-05, 0, !- X,Y,Z Vertex 3 {m}
  17.4042450933574, 1.58265542928859e-05, 3; !- X,Y,Z Vertex 4 {m}

OS:Surface,
  {462bb33b-6c95-4a47-b272-c7275ce6e4a6}, !- Handle
  Surface 3,                              !- Name
  Wall,                                   !- Surface Type
  ,                                       !- Construction Name
  {95994354-c7c4-4933-94ec-70b63dff789c}, !- Space Name
  Outdoors,                               !- Outside Boundary Condition
  ,                                       !- Outside Boundary Condition Object
  SunExposed,                             !- Sun Exposure
  WindExposed,                            !- Wind Exposure
  ,                                       !- View Factor to Ground
  ,                                       !- Number of Vertices
  1.5955237131493e-11, 9.15667959955765, 3, !- X,Y,Z Vertex 1 {m}
  1.5955237131493e-11, 9.15667959955765, 0, !- X,Y,Z Vertex 2 {m}
  0, 0, 0,                                !- X,Y,Z Vertex 3 {m}
  0, 0, 3;                                !- X,Y,Z Vertex 4 {m}

OS:Surface,
  {583d5f1c-a910-4081-ab71-59f6e5da90fa}, !- Handle
  Surface 4,                              !- Name
  Wall,                                   !- Surface Type
  ,                                       !- Construction Name
  {95994354-c7c4-4933-94ec-70b63dff789c}, !- Space Name
  Outdoors,                               !- Outside Boundary Condition
  ,                                       !- Outside Boundary Condition Object
  SunExposed,                             !- Sun Exposure
  WindExposed,                            !- Wind Exposure
  ,                                       !- View Factor to Ground
  ,                                       !- Number of Vertices
  17.404228439858, 9.15669542638699, 3,   !- X,Y,Z Vertex 1 {m}
  17.404228439858, 9.15669542638699, 0,   !- X,Y,Z Vertex 2 {m}
  1.5955237131493e-11, 9.15667959955765, 0, !- X,Y,Z Vertex 3 {m}
  1.5955237131493e-11, 9.15667959955765, 3; !- X,Y,Z Vertex 4 {m}

OS:Surface,
  {05faa7ce-8107-4993-b207-da62f994657e}, !- Handle
  Surface 5,                              !- Name
  Wall,                                   !- Surface Type
  ,                                       !- Construction Name
  {95994354-c7c4-4933-94ec-70b63dff789c}, !- Space Name
  Outdoors,                               !- Outside Boundary Condition
  ,                                       !- Outside Boundary Condition Object
  SunExposed,                             !- Sun Exposure
  WindExposed,                            !- Wind Exposure
  ,                                       !- View Factor to Ground
  ,                                       !- Number of Vertices
  17.4042450933574, 1.58265542928859e-05, 3, !- X,Y,Z Vertex 1 {m}
  17.4042450933574, 1.58265542928859e-05, 0, !- X,Y,Z Vertex 2 {m}
  17.404228439858, 9.15669542638699, 0,   !- X,Y,Z Vertex 3 {m}
  17.404228439858, 9.15669542638699, 3;   !- X,Y,Z Vertex 4 {m}

OS:Surface,
  {5cdc0475-6c98-409b-891c-b683a7a3c556}, !- Handle
  Surface 6,                              !- Name
  RoofCeiling,                            !- Surface Type
  ,                                       !- Construction Name
  {95994354-c7c4-4933-94ec-70b63dff789c}, !- Space Name
  Outdoors,                               !- Outside Boundary Condition
  ,                                       !- Outside Boundary Condition Object
  SunExposed,                             !- Sun Exposure
  WindExposed,                            !- Wind Exposure
  ,                                       !- View Factor to Ground
  ,                                       !- Number of Vertices
  17.404228439858, 9.15669542638699, 3,   !- X,Y,Z Vertex 1 {m}
  1.5955237131493e-11, 9.15667959955765, 3, !- X,Y,Z Vertex 2 {m}
  0, 0, 3,                                !- X,Y,Z Vertex 3 {m}
  17.4042450933574, 1.58265542928859e-05, 3; !- X,Y,Z Vertex 4 {m}

OS:BuildingStory,
  {6df387b1-8e2c-4043-b3bf-e2aac0bc33b2}, !- Handle
  Building Story 1,                       !- Name
  3,                                      !- Nominal Z Coordinate {m}
  3,                                      !- Nominal Floor to Floor Height {m}
  ,                                       !- Default Construction Set Name
  ,                                       !- Default Schedule Set Name
  ;                                       !- Group Rendering Name

OS:ThermalZone,
  {5a8bb2e1-ac57-40b6-83c7-a7f1d2a83c48}, !- Handle
  Building Story 1 ThermalZone,           !- Name
  ,                                       !- Multiplier
  ,                                       !- Ceiling Height {m}
  ,                                       !- Volume {m3}
  ,                                       !- Floor Area {m2}
  ,                                       !- Zone Inside Convection Algorithm
  ,                                       !- Zone Outside Convection Algorithm
  ,                                       !- Zone Conditioning Equipment List Name
  {eaed4ec9-099a-4f4e-9bc8-7526e02fd2f2}, !- Zone Air Inlet Port List
  {6b491cea-3396-475e-9d85-f26b72eb79d5}, !- Zone Air Exhaust Port List
  {9dc28bb1-15c0-4db4-862b-809aec070318}, !- Zone Air Node Name
  {5d2141a3-e7a1-4b0a-8f73-b9ae50567184}, !- Zone Return Air Port List
  ,                                       !- Primary Daylighting Control Name
  ,                                       !- Fraction of Zone Controlled by Primary Daylighting Control
  ,                                       !- Secondary Daylighting Control Name
  ,                                       !- Fraction of Zone Controlled by Secondary Daylighting Control
  ,                                       !- Illuminance Map Name
  ,                                       !- Group Rendering Name
  ,                                       !- Thermostat Name
  No;                                     !- Use Ideal Air Loads

OS:Node,
  {41a4672a-6d4e-49dc-ac3c-fbfca4fb7972}, !- Handle
  Node 1,                                 !- Name
  {9dc28bb1-15c0-4db4-862b-809aec070318}, !- Inlet Port
  ;                                       !- Outlet Port

OS:Connection,
  {9dc28bb1-15c0-4db4-862b-809aec070318}, !- Handle
  {3afffa0e-f82b-4c56-9b9f-733dee40348a}, !- Name
  {5a8bb2e1-ac57-40b6-83c7-a7f1d2a83c48}, !- Source Object
  11,                                     !- Outlet Port
  {41a4672a-6d4e-49dc-ac3c-fbfca4fb7972}, !- Target Object
  2;                                      !- Inlet Port

OS:PortList,
  {eaed4ec9-099a-4f4e-9bc8-7526e02fd2f2}, !- Handle
  {7998ab25-73b5-4d3e-b606-59cbce4e054b}, !- Name
  {5a8bb2e1-ac57-40b6-83c7-a7f1d2a83c48}; !- HVAC Component

OS:PortList,
  {6b491cea-3396-475e-9d85-f26b72eb79d5}, !- Handle
  {7939a8ec-66ff-4ea4-b1f9-2177e90c7c35}, !- Name
  {5a8bb2e1-ac57-40b6-83c7-a7f1d2a83c48}; !- HVAC Component

OS:PortList,
  {5d2141a3-e7a1-4b0a-8f73-b9ae50567184}, !- Handle
  {f5deeeaf-7924-458e-8c26-7613af943b82}, !- Name
  {5a8bb2e1-ac57-40b6-83c7-a7f1d2a83c48}; !- HVAC Component

OS:Sizing:Zone,
  {117fd27d-7801-4247-bd2f-3f17b3f75683}, !- Handle
  {5a8bb2e1-ac57-40b6-83c7-a7f1d2a83c48}, !- Zone or ZoneList Name
  SupplyAirTemperature,                   !- Zone Cooling Design Supply Air Temperature Input Method
  14,                                     !- Zone Cooling Design Supply Air Temperature {C}
  11.11,                                  !- Zone Cooling Design Supply Air Temperature Difference {deltaC}
  SupplyAirTemperature,                   !- Zone Heating Design Supply Air Temperature Input Method
  40,                                     !- Zone Heating Design Supply Air Temperature {C}
  11.11,                                  !- Zone Heating Design Supply Air Temperature Difference {deltaC}
  0.0085,                                 !- Zone Cooling Design Supply Air Humidity Ratio {kg-H2O/kg-air}
  0.008,                                  !- Zone Heating Design Supply Air Humidity Ratio {kg-H2O/kg-air}
  ,                                       !- Zone Heating Sizing Factor
  ,                                       !- Zone Cooling Sizing Factor
  DesignDay,                              !- Cooling Design Air Flow Method
  ,                                       !- Cooling Design Air Flow Rate {m3/s}
  ,                                       !- Cooling Minimum Air Flow per Zone Floor Area {m3/s-m2}
  ,                                       !- Cooling Minimum Air Flow {m3/s}
  ,                                       !- Cooling Minimum Air Flow Fraction
  DesignDay,                              !- Heating Design Air Flow Method
  ,                                       !- Heating Design Air Flow Rate {m3/s}
  ,                                       !- Heating Maximum Air Flow per Zone Floor Area {m3/s-m2}
  ,                                       !- Heating Maximum Air Flow {m3/s}
  ,                                       !- Heating Maximum Air Flow Fraction
  No,                                     !- Account for Dedicated Outdoor Air System
  NeutralSupplyAir,                       !- Dedicated Outdoor Air System Control Strategy
  autosize,                               !- Dedicated Outdoor Air Low Setpoint Temperature for Design {C}
  autosize;                               !- Dedicated Outdoor Air High Setpoint Temperature for Design {C}

OS:ZoneHVAC:EquipmentList,
  {8c271109-a6ab-419d-8e89-52ed51faa374}, !- Handle
  Zone HVAC Equipment List 1,             !- Name
  {5a8bb2e1-ac57-40b6-83c7-a7f1d2a83c48}; !- Thermal Zone

OS:SubSurface,
  {e577ff35-a6d4-429f-94cb-3e1339c10ede}, !- Handle
  Sub Surface 1,                          !- Name
  FixedWindow,                            !- Sub Surface Type
  ,                                       !- Construction Name
  {05faa7ce-8107-4993-b207-da62f994657e}, !- Surface Name
  ,                                       !- Outside Boundary Condition Object
  ,                                       !- View Factor to Ground
  ,                                       !- Frame and Divider Name
  ,                                       !- Multiplier
  ,                                       !- Number of Vertices
  17.4042450471617, 0.0254158265542509, 1.6670209317506, !- X,Y,Z Vertex 1 {m}
  17.4042450471617, 0.0254158265542509, 0.762, !- X,Y,Z Vertex 2 {m}
  17.4042284860537, 9.13129542638703, 0.762, !- X,Y,Z Vertex 3 {m}
  17.4042284860537, 9.13129542638703, 1.6670209317506; !- X,Y,Z Vertex 4 {m}

OS:SubSurface,
  {4f852a1d-1dbe-411e-a9b2-4d29e56aa16e}, !- Handle
  Sub Surface 2,                          !- Name
  FixedWindow,                            !- Sub Surface Type
  ,                                       !- Construction Name
  {462bb33b-6c95-4a47-b272-c7275ce6e4a6}, !- Surface Name
  ,                                       !- Outside Boundary Condition Object
  ,                                       !- View Factor to Ground
  ,                                       !- Frame and Divider Name
  ,                                       !- Multiplier
  ,                                       !- Number of Vertices
  1.59109784000682e-11, 9.13127959955765, 1.66702093175076, !- X,Y,Z Vertex 1 {m}
  1.59109784000682e-11, 9.13127959955765, 0.762, !- X,Y,Z Vertex 2 {m}
  4.42587314248178e-14, 0.0254000000000012, 0.762, !- X,Y,Z Vertex 3 {m}
  4.42587314248178e-14, 0.0254000000000012, 1.66702093175076; !- X,Y,Z Vertex 4 {m}

OS:SubSurface,
  {d430ebc6-5785-4d8d-b9f0-c41d91af2044}, !- Handle
  Sub Surface 3,                          !- Name
  FixedWindow,                            !- Sub Surface Type
  ,                                       !- Construction Name
  {583d5f1c-a910-4081-ab71-59f6e5da90fa}, !- Surface Name
  ,                                       !- Outside Boundary Condition Object
  ,                                       !- View Factor to Ground
  ,                                       !- Frame and Divider Name
  ,                                       !- Multiplier
  ,                                       !- Number of Vertices
  17.378828439858, 9.15669540328907, 1.66463463788487, !- X,Y,Z Vertex 1 {m}
  17.378828439858, 9.15669540328907, 0.762, !- X,Y,Z Vertex 2 {m}
  0.0254000000159422, 9.15667962265557, 0.762, !- X,Y,Z Vertex 3 {m}
  0.0254000000159422, 9.15667962265557, 1.66463463788487; !- X,Y,Z Vertex 4 {m}

OS:SubSurface,
  {2a0698b9-03a3-4226-93b0-f4beabe0c1ae}, !- Handle
  Sub Surface 4,                          !- Name
  FixedWindow,                            !- Sub Surface Type
  ,                                       !- Construction Name
  {4b1ba8ac-e83d-458d-94e0-1b4aac339c23}, !- Surface Name
  ,                                       !- Outside Boundary Condition Object
  ,                                       !- View Factor to Ground
  ,                                       !- Frame and Divider Name
  ,                                       !- Multiplier
  ,                                       !- Number of Vertices
  0.0253999999999895, 2.30974958628123e-08, 1.6646346353565, !- X,Y,Z Vertex 1 {m}
  0.0253999999999895, 2.30974958628123e-08, 0.762, !- X,Y,Z Vertex 2 {m}
  17.3788450933574, 1.58034567970231e-05, 0.762, !- X,Y,Z Vertex 3 {m}
  17.3788450933574, 1.58034567970231e-05, 1.6646346353565; !- X,Y,Z Vertex 4 {m}

OS:ShadingSurfaceGroup,
  {a6802644-ef46-4a57-9ef0-fa1db61b6292}, !- Handle
  Building Barton Dr 7791 Space,          !- Name
  Building;                               !- Shading Surface Type

OS:ShadingSurface,
  {870b626c-a164-46c2-9109-f0ab1473a742}, !- Handle
  Shading Surface 1,                      !- Name
  ,                                       !- Construction Name
  {a6802644-ef46-4a57-9ef0-fa1db61b6292}, !- Shading Surface Group Name
  ,                                       !- Transmittance Schedule Name
  ,                                       !- Number of Vertices
  -104.991534659885, 21.8114370913139, 3, !- X,Y,Z Vertex 1 {m}
  -104.991534659885, 21.8114370913139, -3, !- X,Y,Z Vertex 2 {m}
  -104.991746444466, 2.50818173673352, -3, !- X,Y,Z Vertex 3 {m}
  -104.991746444466, 2.50818173673352, 3; !- X,Y,Z Vertex 4 {m}

OS:ShadingSurface,
  {09266a2a-c239-4243-8263-20386a7355ed}, !- Handle
  Shading Surface 2,                      !- Name
  ,                                       !- Construction Name
  {a6802644-ef46-4a57-9ef0-fa1db61b6292}, !- Shading Surface Group Name
  ,                                       !- Transmittance Schedule Name
  ,                                       !- Number of Vertices
  -104.991746444466, 2.50818173673352, 3, !- X,Y,Z Vertex 1 {m}
  -104.991746444466, 2.50818173673352, -3, !- X,Y,Z Vertex 2 {m}
  -91.6899340395548, 2.50804504217536, -3, !- X,Y,Z Vertex 3 {m}
  -91.6899340395548, 2.50804504217536, 3; !- X,Y,Z Vertex 4 {m}

OS:ShadingSurface,
  {85f75693-27ae-48d9-a14e-947662ec8b9a}, !- Handle
  Shading Surface 3,                      !- Name
  ,                                       !- Construction Name
  {a6802644-ef46-4a57-9ef0-fa1db61b6292}, !- Shading Surface Group Name
  ,                                       !- Transmittance Schedule Name
  ,                                       !- Number of Vertices
  -91.6899340395548, 2.50804504217536, 3, !- X,Y,Z Vertex 1 {m}
  -91.6899340395548, 2.50804504217536, -3, !- X,Y,Z Vertex 2 {m}
  -91.6897490875813, 21.8113003971785, -3, !- X,Y,Z Vertex 3 {m}
  -91.6897490875813, 21.8113003971785, 3; !- X,Y,Z Vertex 4 {m}

OS:ShadingSurface,
  {3ef1921a-f129-41ff-948f-08abb8ad3e8d}, !- Handle
  Shading Surface 4,                      !- Name
  ,                                       !- Construction Name
  {a6802644-ef46-4a57-9ef0-fa1db61b6292}, !- Shading Surface Group Name
  ,                                       !- Transmittance Schedule Name
  ,                                       !- Number of Vertices
  -91.6897490875813, 21.8113003971785, 3, !- X,Y,Z Vertex 1 {m}
  -91.6897490875813, 21.8113003971785, -3, !- X,Y,Z Vertex 2 {m}
  -104.991534659885, 21.8114370913139, -3, !- X,Y,Z Vertex 3 {m}
  -104.991534659885, 21.8114370913139, 3; !- X,Y,Z Vertex 4 {m}

OS:ShadingSurface,
  {451b6ade-abe8-42cb-9f58-9dbb64c3afb0}, !- Handle
  Shading Surface 5,                      !- Name
  ,                                       !- Construction Name
  {a6802644-ef46-4a57-9ef0-fa1db61b6292}, !- Shading Surface Group Name
  ,                                       !- Transmittance Schedule Name
  ,                                       !- Number of Vertices
  -91.6897490875813, 21.8113003971785, -3, !- X,Y,Z Vertex 1 {m}
  -91.6899340395548, 2.50804504217536, -3, !- X,Y,Z Vertex 2 {m}
  -104.991746444466, 2.50818173673352, -3, !- X,Y,Z Vertex 3 {m}
  -104.991534659885, 21.8114370913139, -3; !- X,Y,Z Vertex 4 {m}

OS:ShadingSurface,
  {7d25e574-b059-47d4-b812-05df5fc6e872}, !- Handle
  Shading Surface 6,                      !- Name
  ,                                       !- Construction Name
  {a6802644-ef46-4a57-9ef0-fa1db61b6292}, !- Shading Surface Group Name
  ,                                       !- Transmittance Schedule Name
  ,                                       !- Number of Vertices
  -104.991534659885, 21.8114370913139, 3, !- X,Y,Z Vertex 1 {m}
  -104.991746444466, 2.50818173673352, 3, !- X,Y,Z Vertex 2 {m}
  -91.6899340395548, 2.50804504217536, 3, !- X,Y,Z Vertex 3 {m}
  -91.6897490875813, 21.8113003971785, 3; !- X,Y,Z Vertex 4 {m}

OS:ShadingSurfaceGroup,
  {403828a4-fb29-4398-9b38-9f0039a3a2da}, !- Handle
  Building Barton Dr 7792  Space,         !- Name
  Building;                               !- Shading Surface Type

OS:ShadingSurface,
  {a6f33b86-3629-4de3-a94b-44c003b09cb1}, !- Handle
  Shading Surface 7,                      !- Name
  ,                                       !- Construction Name
  {403828a4-fb29-4398-9b38-9f0039a3a2da}, !- Shading Surface Group Name
  ,                                       !- Transmittance Schedule Name
  ,                                       !- Number of Vertices
  -102.878640829862, -22.2760548184715, 3, !- X,Y,Z Vertex 1 {m}
  -102.878640829862, -22.2760548184715, -3, !- X,Y,Z Vertex 2 {m}
  -102.878843028762, -41.0844402667718, -3, !- X,Y,Z Vertex 3 {m}
  -102.878843028762, -41.0844402667718, 3; !- X,Y,Z Vertex 4 {m}

OS:ShadingSurface,
  {1248c41a-b0df-4edb-ab60-780de4e597bb}, !- Handle
  Shading Surface 8,                      !- Name
  ,                                       !- Construction Name
  {403828a4-fb29-4398-9b38-9f0039a3a2da}, !- Shading Surface Group Name
  ,                                       !- Transmittance Schedule Name
  ,                                       !- Number of Vertices
  -91.1929062065592, -22.2761733118514, 3, !- X,Y,Z Vertex 1 {m}
  -91.1929062065592, -22.2761733118514, -3, !- X,Y,Z Vertex 2 {m}
  -102.878640829862, -22.2760548184715, -3, !- X,Y,Z Vertex 3 {m}
  -102.878640829862, -22.2760548184715, 3; !- X,Y,Z Vertex 4 {m}

OS:ShadingSurface,
  {3f59c367-6972-4a68-a448-2a8b74eb1464}, !- Handle
  Shading Surface 9,                      !- Name
  ,                                       !- Construction Name
  {403828a4-fb29-4398-9b38-9f0039a3a2da}, !- Shading Surface Group Name
  ,                                       !- Transmittance Schedule Name
  ,                                       !- Number of Vertices
  -102.878843028762, -41.0844402667718, 3, !- X,Y,Z Vertex 1 {m}
  -102.878843028762, -41.0844402667718, -3, !- X,Y,Z Vertex 2 {m}
  -91.1930854383643, -41.0845587600022, -3, !- X,Y,Z Vertex 3 {m}
  -91.1930854383643, -41.0845587600022, 3; !- X,Y,Z Vertex 4 {m}

OS:ShadingSurface,
  {058071e4-e708-47e6-8f71-9201884681ba}, !- Handle
  Shading Surface 10,                     !- Name
  ,                                       !- Construction Name
  {403828a4-fb29-4398-9b38-9f0039a3a2da}, !- Shading Surface Group Name
  ,                                       !- Transmittance Schedule Name
  ,                                       !- Number of Vertices
  -102.878640829862, -22.2760548184715, 3, !- X,Y,Z Vertex 1 {m}
  -102.878843028762, -41.0844402667718, 3, !- X,Y,Z Vertex 2 {m}
  -91.1930854383643, -41.0845587600022, 3, !- X,Y,Z Vertex 3 {m}
  -91.1929062065592, -22.2761733118514, 3; !- X,Y,Z Vertex 4 {m}

OS:ShadingSurface,
  {44508dec-97fa-492a-8288-c065e515e406}, !- Handle
  Shading Surface 11,                     !- Name
  ,                                       !- Construction Name
  {403828a4-fb29-4398-9b38-9f0039a3a2da}, !- Shading Surface Group Name
  ,                                       !- Transmittance Schedule Name
  ,                                       !- Number of Vertices
  -91.1929062065592, -22.2761733118514, -3, !- X,Y,Z Vertex 1 {m}
  -91.1930854383643, -41.0845587600022, -3, !- X,Y,Z Vertex 2 {m}
  -102.878843028762, -41.0844402667718, -3, !- X,Y,Z Vertex 3 {m}
  -102.878640829862, -22.2760548184715, -3; !- X,Y,Z Vertex 4 {m}

OS:ShadingSurface,
  {d4aeb766-e3c8-4dda-ba43-cf8373c334d5}, !- Handle
  Shading Surface 12,                     !- Name
  ,                                       !- Construction Name
  {403828a4-fb29-4398-9b38-9f0039a3a2da}, !- Shading Surface Group Name
  ,                                       !- Transmittance Schedule Name
  ,                                       !- Number of Vertices
  -91.1930854383643, -41.0845587600022, 3, !- X,Y,Z Vertex 1 {m}
  -91.1930854383643, -41.0845587600022, -3, !- X,Y,Z Vertex 2 {m}
  -91.1929062065592, -22.2761733118514, -3, !- X,Y,Z Vertex 3 {m}
  -91.1929062065592, -22.2761733118514, 3; !- X,Y,Z Vertex 4 {m}

OS:ShadingSurfaceGroup,
  {b49c8f17-7f40-46e9-9941-c7d64fc87667}, !- Handle
  Building Barton Dr 7801  Space,         !- Name
  Building;                               !- Shading Surface Type

OS:ShadingSurface,
  {3a340c35-fde6-4fba-8616-9f5ee54e6961}, !- Handle
  Shading Surface 13,                     !- Name
  ,                                       !- Construction Name
  {b49c8f17-7f40-46e9-9941-c7d64fc87667}, !- Shading Surface Group Name
  ,                                       !- Transmittance Schedule Name
  ,                                       !- Number of Vertices
  -80.6256533230729, 21.0687685995591, -3, !- X,Y,Z Vertex 1 {m}
  -80.6258055319281, 3.0029011744581, -3, !- X,Y,Z Vertex 2 {m}
  -90.9440333140581, 3.00299367027602, -3, !- X,Y,Z Vertex 3 {m}
  -90.9438616265439, 21.068861095529, -3; !- X,Y,Z Vertex 4 {m}

OS:ShadingSurface,
  {4cafa76c-c07e-4f54-bf87-7c17f2864c76}, !- Handle
  Shading Surface 14,                     !- Name
  ,                                       !- Construction Name
  {b49c8f17-7f40-46e9-9941-c7d64fc87667}, !- Shading Surface Group Name
  ,                                       !- Transmittance Schedule Name
  ,                                       !- Number of Vertices
  -90.9440333140581, 3.00299367027602, 3, !- X,Y,Z Vertex 1 {m}
  -90.9440333140581, 3.00299367027602, -3, !- X,Y,Z Vertex 2 {m}
  -80.6258055319281, 3.0029011744581, -3, !- X,Y,Z Vertex 3 {m}
  -80.6258055319281, 3.0029011744581, 3;  !- X,Y,Z Vertex 4 {m}

OS:ShadingSurface,
  {7ecfd980-25e9-44bd-bbc7-d7f02408bf75}, !- Handle
  Shading Surface 15,                     !- Name
  ,                                       !- Construction Name
  {b49c8f17-7f40-46e9-9941-c7d64fc87667}, !- Shading Surface Group Name
  ,                                       !- Transmittance Schedule Name
  ,                                       !- Number of Vertices
  -80.6258055319281, 3.0029011744581, 3,  !- X,Y,Z Vertex 1 {m}
  -80.6258055319281, 3.0029011744581, -3, !- X,Y,Z Vertex 2 {m}
  -80.6256533230729, 21.0687685995591, -3, !- X,Y,Z Vertex 3 {m}
  -80.6256533230729, 21.0687685995591, 3; !- X,Y,Z Vertex 4 {m}

OS:ShadingSurface,
  {7824f598-5cac-47fd-a071-1cb0a0e54072}, !- Handle
  Shading Surface 16,                     !- Name
  ,                                       !- Construction Name
  {b49c8f17-7f40-46e9-9941-c7d64fc87667}, !- Shading Surface Group Name
  ,                                       !- Transmittance Schedule Name
  ,                                       !- Number of Vertices
  -90.9438616265439, 21.068861095529, 3,  !- X,Y,Z Vertex 1 {m}
  -90.9438616265439, 21.068861095529, -3, !- X,Y,Z Vertex 2 {m}
  -90.9440333140581, 3.00299367027602, -3, !- X,Y,Z Vertex 3 {m}
  -90.9440333140581, 3.00299367027602, 3; !- X,Y,Z Vertex 4 {m}

OS:ShadingSurface,
  {165741bf-a5a9-445a-814d-e9e00d28139f}, !- Handle
  Shading Surface 17,                     !- Name
  ,                                       !- Construction Name
  {b49c8f17-7f40-46e9-9941-c7d64fc87667}, !- Shading Surface Group Name
  ,                                       !- Transmittance Schedule Name
  ,                                       !- Number of Vertices
  -90.9438616265439, 21.068861095529, 3,  !- X,Y,Z Vertex 1 {m}
  -90.9440333140581, 3.00299367027602, 3, !- X,Y,Z Vertex 2 {m}
  -80.6258055319281, 3.0029011744581, 3,  !- X,Y,Z Vertex 3 {m}
  -80.6256533230729, 21.0687685995591, 3; !- X,Y,Z Vertex 4 {m}

OS:ShadingSurface,
  {11bd06b8-533b-4434-b683-ef0bd4d229ad}, !- Handle
  Shading Surface 18,                     !- Name
  ,                                       !- Construction Name
  {b49c8f17-7f40-46e9-9941-c7d64fc87667}, !- Shading Surface Group Name
  ,                                       !- Transmittance Schedule Name