
OS:Version,
  {87e66839-093d-4557-8c7c-b8013f9ffbeb}, !- Handle
  3.1.0;                                  !- Version Identifier

OS:Facility,
  {5f701c8b-02c1-4596-bf77-6b041e118b2b}; !- Handle

OS:LifeCycleCost:Parameters,
  {a5ec8093-84e6-494a-bb80-0435752c8437}, !- Handle
  ,                                       !- Analysis Type
  ,                                       !- Discounting Convention
  ,                                       !- Inflation Approach
  ,                                       !- Real Discount Rate
  ,                                       !- Nominal Discount Rate
  ,                                       !- Inflation
  ,                                       !- Base Date Month
  ,                                       !- Base Date Year
  ,                                       !- Service Date Month
  ,                                       !- Service Date Year
  ;                                       !- Length of Study Period in Years

OS:EnergyManagementSystem:ProgramCallingManager,
  {636e951b-41a0-42dd-879d-f46ed502ae40}, !- Handle
  component_loads_program calling manager, !- Name
  EndOfZoneTimestepAfterZoneReporting,    !- EnergyPlus Model Calling Point
  {97646c72-c57e-4b5d-882e-2ca7fe0ea7c0}; !- Program Name 1

OS:EnergyManagementSystem:Program,
  {97646c72-c57e-4b5d-882e-2ca7fe0ea7c0}, !- Handle
  component_loads_program,                !- Name
  Set hr_walls = 0,                       !- Program Line 1
  Set hr_walls = hr_walls + s_conv_1 + s_ig_1 + s_sol_1 + s_lgt_1 + s_surf_1, !- Program Line 2
  Set hr_walls = hr_walls + s_conv_2 + s_ig_2 + s_sol_2 + s_lgt_2 + s_surf_2, !- Program Line 3
  Set hr_walls = hr_walls + s_conv_3 + s_ig_3 + s_sol_3 + s_lgt_3 + s_surf_3, !- Program Line 4
  Set hr_walls = hr_walls + s_conv_4 + s_ig_4 + s_sol_4 + s_lgt_4 + s_surf_4, !- Program Line 5
  Set hr_rim_joists = 0,                  !- Program Line 6
  Set hr_foundation_walls = 0,            !- Program Line 7
  Set hr_floors = 0,                      !- Program Line 8
  Set hr_floors = hr_floors + s_conv + s_ig + s_sol + s_lgt + s_surf, !- Program Line 9
  Set hr_slabs = 0,                       !- Program Line 10
  Set hr_ceilings = 0,                    !- Program Line 11
  Set hr_ceilings = hr_ceilings + s_conv_5 + s_ig_5 + s_sol_5 + s_lgt_5 + s_surf_5, !- Program Line 12
  Set hr_roofs = 0,                       !- Program Line 13
  Set hr_windows = 0,                     !- Program Line 14
  Set hr_windows = hr_windows - ss_trans_in + ss_back_out * ZoneTimestep * 3600 + ss_sw_abs * ZoneTimestep * 3600 - ss_sol_abs + ss_trans_out * ZoneTimestep * 3600 + ss_conv + ss_ig + ss_surf, !- Program Line 15
  Set hr_windows = hr_windows - ss_trans_in_1 + ss_back_out_1 * ZoneTimestep * 3600 + ss_sw_abs_1 * ZoneTimestep * 3600 - ss_sol_abs_1 + ss_trans_out_1 * ZoneTimestep * 3600 + ss_conv_1 + ss_ig_1 + ss_surf_1, !- Program Line 16
  Set hr_windows = hr_windows - ss_trans_in_2 + ss_back_out_2 * ZoneTimestep * 3600 + ss_sw_abs_2 * ZoneTimestep * 3600 - ss_sol_abs_2 + ss_trans_out_2 * ZoneTimestep * 3600 + ss_conv_2 + ss_ig_2 + ss_surf_2, !- Program Line 17
  Set hr_windows = hr_windows - ss_trans_in_3 + ss_back_out_3 * ZoneTimestep * 3600 + ss_sw_abs_3 * ZoneTimestep * 3600 - ss_sol_abs_3 + ss_trans_out_3 * ZoneTimestep * 3600 + ss_conv_4 + ss_ig_4 + ss_surf_4, !- Program Line 18
  Set hr_doors = 0,                       !- Program Line 19
  Set hr_doors = hr_doors + ss_sol + ss_lgt + ss_conv_3 + ss_ig_3 + ss_surf_3, !- Program Line 20
  Set hr_skylights = 0,                   !- Program Line 21
  Set hr_internal_mass = 0,               !- Program Line 22
  Set hr_internal_mass = hr_internal_mass + im_conv + im_ig + im_sol + im_lgt + im_surf, !- Program Line 23
  Set hr_internal_mass = hr_internal_mass + im_conv_1 + im_ig_1 + im_sol_1 + im_lgt_1 + im_surf_1, !- Program Line 24
  Set hr_intgains = 0,                    !- Program Line 25
  Set hr_intgains = hr_intgains - ig_ee_conv - ig_ee_rad, !- Program Line 26
  Set hr_intgains = hr_intgains - ig_ee_conv_1 - ig_ee_rad_1, !- Program Line 27
  Set hr_intgains = hr_intgains - ig_ee_conv_2 - ig_ee_rad_2, !- Program Line 28
  Set hr_intgains = hr_intgains - ig_ee_conv_3 - ig_ee_rad_3, !- Program Line 29
  Set hr_intgains = hr_intgains - ig_ee_conv_4 - ig_ee_rad_4, !- Program Line 30
  Set hr_intgains = hr_intgains - ig_ee_conv_5 - ig_ee_rad_5, !- Program Line 31
  Set hr_intgains = hr_intgains - ig_ee_conv_6 - ig_ee_rad_6, !- Program Line 32
  Set hr_intgains = hr_intgains - ig_ee_conv_7 - ig_ee_rad_7, !- Program Line 33
  Set hr_intgains = hr_intgains - ig_ee_conv_8 - ig_ee_rad_8, !- Program Line 34
  Set hr_intgains = hr_intgains - ig_oe_conv - ig_oe_rad, !- Program Line 35
  Set hr_intgains = hr_intgains - ig_oe_conv_1 - ig_oe_rad_1, !- Program Line 36
  Set hr_intgains = hr_intgains - ig_oe_conv_2 - ig_oe_rad_2, !- Program Line 37
  Set hr_intgains = hr_intgains - ig_oe_conv_3 - ig_oe_rad_3, !- Program Line 38
  Set hr_intgains = hr_intgains - ig_oe_conv_4 - ig_oe_rad_4, !- Program Line 39
  Set hr_intgains = hr_intgains - ig_lgt_conv - ig_lgt_rad - ig_lgt_vis, !- Program Line 40
  Set hr_intgains = hr_intgains - ig_ppl_conv - ig_ppl_rad, !- Program Line 41
  Set hr_intgains = hr_intgains + dhw_loss * (0.64*(1-dhw_rtf) + 1.0*dhw_rtf), !- Program Line 42
  Set hr_airflow_rate = infil_flow_act + natural_vent_flow_act + whole_house_fan_flow_act, !- Program Line 43
  If hr_airflow_rate > 0,                 !- Program Line 44
  Set hr_infil = (airflow_loss - airflow_gain) * infil_flow_act / hr_airflow_rate, !- Program Line 45
  Set hr_natvent = (airflow_loss - airflow_gain) * natural_vent_flow_act / hr_airflow_rate, !- Program Line 46
  Set hr_whf = (airflow_loss - airflow_gain) * whole_house_fan_flow_act / hr_airflow_rate, !- Program Line 47
  Else,                                   !- Program Line 48
  Set hr_infil = 0,                       !- Program Line 49
  Set hr_natvent = 0,                     !- Program Line 50
  Set hr_whf = 0,                         !- Program Line 51
  Set hr_mechvent = 0,                    !- Program Line 52
  EndIf,                                  !- Program Line 53
  Set hr_mechvent = 0,                    !- Program Line 54
  Set hr_mechvent = hr_mechvent - mv_conv, !- Program Line 55
  Set hr_mechvent = hr_mechvent - mv_rad, !- Program Line 56
  Set hr_mechvent = hr_mechvent - mv_conv_1, !- Program Line 57
  Set hr_mechvent = hr_mechvent - mv_rad_1, !- Program Line 58
  Set hr_mechvent = hr_mechvent - mv_conv_2, !- Program Line 59
  Set hr_mechvent = hr_mechvent - mv_rad_2, !- Program Line 60
  Set hr_mechvent = hr_mechvent - mv_conv_3, !- Program Line 61
  Set hr_mechvent = hr_mechvent - mv_rad_3, !- Program Line 62
  Set hr_mechvent = hr_mechvent - mv_conv_4, !- Program Line 63
  Set hr_mechvent = hr_mechvent - mv_rad_4, !- Program Line 64
  Set hr_mechvent = hr_mechvent - mv_conv_5, !- Program Line 65
  Set hr_mechvent = hr_mechvent - mv_rad_5, !- Program Line 66
  Set hr_ducts = 0,                       !- Program Line 67
  Set hr_ducts = hr_ducts - ducts_conv - ducts_rad, !- Program Line 68
  Set hr_ducts = hr_ducts - ducts_conv_1 - ducts_rad_1, !- Program Line 69
  Set hr_ducts = hr_ducts - ducts_conv_2 - ducts_rad_2, !- Program Line 70
  Set hr_ducts = hr_ducts - ducts_conv_3 - ducts_rad_3, !- Program Line 71
  Set hr_ducts = hr_ducts - ducts_conv_4 - ducts_rad_4, !- Program Line 72
  Set hr_ducts = hr_ducts - ducts_conv_5 - ducts_rad_5, !- Program Line 73
  Set hr_ducts = hr_ducts + (duct_mix_loss - duct_mix_gain), !- Program Line 74
  Set htg_mode = 0,                       !- Program Line 75
  Set clg_mode = 0,                       !- Program Line 76
  If (htg_load_liv > 0),                  !- Program Line 77
  Set htg_mode = 1,                       !- Program Line 78
  ElseIf (clg_load_liv > 0),              !- Program Line 79
  Set clg_mode = 1,                       !- Program Line 80
  ElseIf (cool_season > 0),               !- Program Line 81
  Set clg_mode = 1,                       !- Program Line 82
  Else,                                   !- Program Line 83
  Set htg_mode = 1,                       !- Program Line 84
  EndIf,                                  !- Program Line 85
  Set loads_htg_walls = hr_walls * htg_mode, !- Program Line 86
  Set loads_htg_rim_joists = hr_rim_joists * htg_mode, !- Program Line 87
  Set loads_htg_foundation_walls = hr_foundation_walls * htg_mode, !- Program Line 88
  Set loads_htg_floors = hr_floors * htg_mode, !- Program Line 89
  Set loads_htg_slabs = hr_slabs * htg_mode, !- Program Line 90
  Set loads_htg_ceilings = hr_ceilings * htg_mode, !- Program Line 91
  Set loads_htg_roofs = hr_roofs * htg_mode, !- Program Line 92
  Set loads_htg_windows = hr_windows * htg_mode, !- Program Line 93
  Set loads_htg_doors = hr_doors * htg_mode, !- Program Line 94
  Set loads_htg_skylights = hr_skylights * htg_mode, !- Program Line 95
  Set loads_htg_internal_mass = hr_internal_mass * htg_mode, !- Program Line 96
  Set loads_htg_intgains = hr_intgains * htg_mode, !- Program Line 97
  Set loads_htg_infil = hr_infil * htg_mode, !- Program Line 98
  Set loads_htg_mechvent = hr_mechvent * htg_mode, !- Program Line 99
  Set loads_htg_natvent = hr_natvent * htg_mode, !- Program Line 100
  Set loads_htg_whf = hr_whf * htg_mode,  !- Program Line 101
  Set loads_htg_ducts = hr_ducts * htg_mode, !- Program Line 102
  Set loads_clg_walls = -hr_walls * clg_mode, !- Program Line 103
  Set loads_clg_rim_joists = -hr_rim_joists * clg_mode, !- Program Line 104
  Set loads_clg_foundation_walls = -hr_foundation_walls * clg_mode, !- Program Line 105
  Set loads_clg_floors = -hr_floors * clg_mode, !- Program Line 106
  Set loads_clg_slabs = -hr_slabs * clg_mode, !- Program Line 107
  Set loads_clg_ceilings = -hr_ceilings * clg_mode, !- Program Line 108
  Set loads_clg_roofs = -hr_roofs * clg_mode, !- Program Line 109
  Set loads_clg_windows = -hr_windows * clg_mode, !- Program Line 110
  Set loads_clg_doors = -hr_doors * clg_mode, !- Program Line 111
  Set loads_clg_skylights = -hr_skylights * clg_mode, !- Program Line 112
  Set loads_clg_internal_mass = -hr_internal_mass * clg_mode, !- Program Line 113
  Set loads_clg_intgains = -hr_intgains * clg_mode, !- Program Line 114
  Set loads_clg_infil = -hr_infil * clg_mode, !- Program Line 115
  Set loads_clg_mechvent = -hr_mechvent * clg_mode, !- Program Line 116
  Set loads_clg_natvent = -hr_natvent * clg_mode, !- Program Line 117
  Set loads_clg_whf = -hr_whf * clg_mode, !- Program Line 118
  Set loads_clg_ducts = -hr_ducts * clg_mode, !- Program Line 119
  Set loads_htg_tot = 0,                  !- Program Line 120
  Set loads_clg_tot = 0,                  !- Program Line 121
  If htg_load_liv > 0,                    !- Program Line 122
  Set loads_htg_tot = htg_load_tot - clg_load_tot, !- Program Line 123
  ElseIf clg_load_liv > 0,                !- Program Line 124
  Set loads_clg_tot = clg_load_tot - htg_load_tot, !- Program Line 125
  EndIf;                                  !- Program Line 126

OS:EnergyManagementSystem:Sensor,
  {666bbd76-8eb3-444c-92ff-e2fc4f6ed450}, !- Handle
  dhw_rtf,                                !- Name
  water heater,                           !- Output Variable or Output Meter Index Key Name
  Water Heater Runtime Fraction;          !- Output Variable or Output Meter Name

OS:EnergyManagementSystem:Sensor,
  {fce751d3-7bca-4685-9da7-9aabbdbb5b11}, !- Handle
  dhw_loss,                               !- Name
  water heater,                           !- Output Variable or Output Meter Index Key Name
  Water Heater Heat Loss Energy;          !- Output Variable or Output Meter Name

OS:EnergyManagementSystem:Sensor,
  {121d2e34-400f-4dae-8257-2d886e7c0031}, !- Handle
  ig_ppl_rad,                             !- Name
  occupants,                              !- Output Variable or Output Meter Index Key Name
  People Radiant Heating Energy;          !- Output Variable or Output Meter Name

OS:EnergyManagementSystem:Sensor,
  {7fec5465-8f3d-4cf7-a619-e6d1eb382613}, !- Handle
  ig_ppl_conv,                            !- Name
  occupants,                              !- Output Variable or Output Meter Index Key Name
  People Convective Heating Energy;       !- Output Variable or Output Meter Name

OS:EnergyManagementSystem:Sensor,
  {f70c54bb-7772-4701-befa-9dc8bc4be088}, !- Handle
  ig_lgt_vis,                             !- Name
  interior lighting,                      !- Output Variable or Output Meter Index Key Name
  Lights Visible Radiation Heating Energy; !- Output Variable or Output Meter Name

OS:EnergyManagementSystem:Sensor,
  {c06809fe-96fb-4105-a287-d638dd028a7c}, !- Handle
  ig_lgt_rad,                             !- Name
  interior lighting,                      !- Output Variable or Output Meter Index Key Name
  Lights Radiant Heating Energy;          !- Output Variable or Output Meter Name

OS:EnergyManagementSystem:Sensor,
  {e9d3ee89-2250-4f40-9843-7925a35c09c5}, !- Handle
  ig_lgt_conv,                            !- Name
  interior lighting,                      !- Output Variable or Output Meter Index Key Name
  Lights Convective Heating Energy;       !- Output Variable or Output Meter Name

OS:EnergyManagementSystem:Sensor,
  {c6c456c2-5d25-40cf-8ef1-a73205e24be1}, !- Handle
  ig_oe_rad_4,                            !- Name
  water sensible,                         !- Output Variable or Output Meter Index Key Name
  Other Equipment Radiant Heating Energy; !- Output Variable or Output Meter Name

OS:EnergyManagementSystem:Sensor,
  {2e6c4376-8b7f-4f58-a819-76e5d4de12a3}, !- Handle
  ig_oe_conv_4,                           !- Name
  water sensible,                         !- Output Variable or Output Meter Index Key Name
  Other Equipment Convective Heating Energy; !- Output Variable or Output Meter Name

OS:EnergyManagementSystem:Sensor,
  {78f038ff-b4d6-476a-9ae6-a4ed7edb0c23}, !- Handle
  ig_oe_rad_3,                            !- Name
  water latent,                           !- Output Variable or Output Meter Index Key Name
  Other Equipment Radiant Heating Energy; !- Output Variable or Output Meter Name

OS:EnergyManagementSystem:Sensor,
  {7e344987-ba99-431c-b096-7efe06a9cb9f}, !- Handle
  ig_oe_conv_3,                           !- Name
  water latent,                           !- Output Variable or Output Meter Index Key Name
  Other Equipment Convective Heating Energy; !- Output Variable or Output Meter Name

OS:EnergyManagementSystem:Sensor,
  {e52150cc-d1a4-40a2-b1cb-772a0f57a572}, !- Handle
  ig_oe_rad_2,                            !- Name
  water heater EC adjustment,             !- Output Variable or Output Meter Index Key Name
  Other Equipment Radiant Heating Energy; !- Output Variable or Output Meter Name

OS:EnergyManagementSystem:Sensor,
  {c422f414-88ed-4db6-9c73-74938a2cffe6}, !- Handle
  ig_oe_conv_2,                           !- Name
  water heater EC adjustment,             !- Output Variable or Output Meter Index Key Name
  Other Equipment Convective Heating Energy; !- Output Variable or Output Meter Name

OS:EnergyManagementSystem:Sensor,
  {e93a248c-ea5e-4840-8968-f0a2eabfa1c8}, !- Handle
  ig_oe_rad_1,                            !- Name
  cooking range 1,                        !- Output Variable or Output Meter Index Key Name
  Other Equipment Radiant Heating Energy; !- Output Variable or Output Meter Name

OS:EnergyManagementSystem:Sensor,
  {6c5b69b3-9678-4202-9798-b4f36f838201}, !- Handle
  ig_oe_conv_1,                           !- Name
  cooking range 1,                        !- Output Variable or Output Meter Index Key Name
  Other Equipment Convective Heating Energy; !- Output Variable or Output Meter Name

OS:EnergyManagementSystem:Sensor,
  {333356e4-98ba-43eb-a9ef-6166743d046f}, !- Handle
  ig_oe_rad,                              !- Name
  clothes dryer 1,                        !- Output Variable or Output Meter Index Key Name
  Other Equipment Radiant Heating Energy; !- Output Variable or Output Meter Name

OS:EnergyManagementSystem:Sensor,
  {32659994-fed6-4002-a79b-a23dd1821917}, !- Handle
  ig_oe_conv,                             !- Name
  clothes dryer 1,                        !- Output Variable or Output Meter Index Key Name
  Other Equipment Convective Heating Energy; !- Output Variable or Output Meter Name

OS:EnergyManagementSystem:Sensor,
  {2cc15263-a443-4f69-93f2-7be7aad5baff}, !- Handle
  ig_ee_rad_8,                            !- Name
  whole house fan,                        !- Output Variable or Output Meter Index Key Name
  Electric Equipment Radiant Heating Energy; !- Output Variable or Output Meter Name

OS:EnergyManagementSystem:Sensor,
  {a63311d2-6469-4bef-a20c-368ed2a6989e}, !- Handle
  ig_ee_conv_8,                           !- Name
  whole house fan,                        !- Output Variable or Output Meter Index Key Name
  Electric Equipment Convective Heating Energy; !- Output Variable or Output Meter Name

OS:EnergyManagementSystem:Sensor,
  {b41cef95-097b-4666-819b-49fe71f82f5e}, !- Handle
  ig_ee_rad_7,                            !- Name
  misc tv,                                !- Output Variable or Output Meter Index Key Name
  Electric Equipment Radiant Heating Energy; !- Output Variable or Output Meter Name

OS:EnergyManagementSystem:Sensor,
  {841ab128-2399-43ce-a4b6-3620f7ad0331}, !- Handle
  ig_ee_conv_7,                           !- Name
  misc tv,                                !- Output Variable or Output Meter Index Key Name
  Electric Equipment Convective Heating Energy; !- Output Variable or Output Meter Name

OS:EnergyManagementSystem:Sensor,
  {91e1be56-0c70-46d6-8286-ca9c3e30b8cf}, !- Handle
  ig_ee_rad_6,                            !- Name
  misc plug loads,                        !- Output Variable or Output Meter Index Key Name
  Electric Equipment Radiant Heating Energy; !- Output Variable or Output Meter Name

OS:EnergyManagementSystem:Sensor,
  {51edae81-f00a-4c95-a9ac-c7c0c632e225}, !- Handle
  ig_ee_conv_6,                           !- Name
  misc plug loads,                        !- Output Variable or Output Meter Index Key Name
  Electric Equipment Convective Heating Energy; !- Output Variable or Output Meter Name

OS:EnergyManagementSystem:Sensor,
  {7217605a-a392-45a9-998f-0f8b7c8878e9}, !- Handle
  ig_ee_rad_5,                            !- Name
  fridge,                                 !- Output Variable or Output Meter Index Key Name
  Electric Equipment Radiant Heating Energy; !- Output Variable or Output Meter Name

OS:EnergyManagementSystem:Sensor,
  {1e29ad67-cc58-4903-9c83-1fc794b60319}, !- Handle
  ig_ee_conv_5,                           !- Name
  fridge,                                 !- Output Variable or Output Meter Index Key Name
  Electric Equipment Convective Heating Energy; !- Output Variable or Output Meter Name

OS:EnergyManagementSystem:Sensor,
  {aace02fa-15ee-4b83-8b7d-07529760de43}, !- Handle
  ig_ee_rad_4,                            !- Name
  dishwasher,                             !- Output Variable or Output Meter Index Key Name
  Electric Equipment Radiant Heating Energy; !- Output Variable or Output Meter Name

OS:EnergyManagementSystem:Sensor,
  {0ece6c1c-38b2-4158-bbbd-f36d84a92429}, !- Handle
  ig_ee_conv_4,                           !- Name
  dishwasher,                             !- Output Variable or Output Meter Index Key Name
  Electric Equipment Convective Heating Energy; !- Output Variable or Output Meter Name

OS:EnergyManagementSystem:Sensor,
  {a69fc91e-d565-4e54-ac9b-79a0c696fe67}, !- Handle
  ig_ee_rad_3,                            !- Name
  cooking range,                          !- Output Variable or Output Meter Index Key Name
  Electric Equipment Radiant Heating Energy; !- Output Variable or Output Meter Name

OS:EnergyManagementSystem:Sensor,
  {4556ccff-ba60-444b-a52e-fc904748a8bc}, !- Handle
  ig_ee_conv_3,                           !- Name
  cooking range,                          !- Output Variable or Output Meter Index Key Name
  Electric Equipment Convective Heating Energy; !- Output Variable or Output Meter Name

OS:EnergyManagementSystem:Sensor,
  {0beb71be-fb27-44af-b0e9-cb4e39819328}, !- Handle
  ig_ee_rad_2,                            !- Name
  clothes washer,                         !- Output Variable or Output Meter Index Key Name
  Electric Equipment Radiant Heating Energy; !- Output Variable or Output Meter Name

OS:EnergyManagementSystem:Sensor,
  {5fcc6528-d545-4e42-b51f-a543c6798000}, !- Handle
  ig_ee_conv_2,                           !- Name
  clothes washer,                         !- Output Variable or Output Meter Index Key Name
  Electric Equipment Convective Heating Energy; !- Output Variable or Output Meter Name

OS:EnergyManagementSystem:Sensor,
  {682bc0d0-cc3e-43cc-96c3-762fa65e3b89}, !- Handle
  ig_ee_rad_1,                            !- Name
  clothes dryer,                          !- Output Variable or Output Meter Index Key Name
  Electric Equipment Radiant Heating Energy; !- Output Variable or Output Meter Name

OS:EnergyManagementSystem:Sensor,
  {be05701c-622e-40ad-97d3-d2a8fb3e3bbc}, !- Handle
  ig_ee_conv_1,                           !- Name
  clothes dryer,                          !- Output Variable or Output Meter Index Key Name
  Electric Equipment Convective Heating Energy; !- Output Variable or Output Meter Name

OS:EnergyManagementSystem:Sensor,
  {9b62acd0-9107-43bd-ab85-4fb18c56f6ce}, !- Handle
  ig_ee_rad,                              !- Name
  ceiling fan,                            !- Output Variable or Output Meter Index Key Name
  Electric Equipment Radiant Heating Energy; !- Output Variable or Output Meter Name

OS:EnergyManagementSystem:Sensor,
  {371028b5-a7f2-499e-a150-9677e6fef728}, !- Handle
  ig_ee_conv,                             !- Name
  ceiling fan,                            !- Output Variable or Output Meter Index Key Name
  Electric Equipment Convective Heating Energy; !- Output Variable or Output Meter Name

OS:AdditionalProperties,
  {fab0c701-0e7b-4579-9b33-b713ec750f23}, !- Handle
  {3a9d60a4-c4e5-4a28-86aa-48b8914f9c1d}; !- Object Name

OS:AdditionalProperties,
  {0da23edf-e4b7-4199-95bb-4c1ac7ff34fb}, !- Handle
  {53680713-388a-4ec4-a3f6-4b4c901053e2}; !- Object Name

OS:AdditionalProperties,
  {f4b3b857-198b-4dde-9d33-12ce4d1c6cba}, !- Handle
  {e76b01f4-2940-47cb-b1ed-9a98b56ed4e4}; !- Object Name

OS:AdditionalProperties,
  {aa66cfd1-3bc9-479b-8435-804128e8ec54}, !- Handle
  {059c62d6-85be-430e-9eea-2d80d6f80460}; !- Object Name

OS:AdditionalProperties,
  {590d2125-db5d-483c-beba-c4391d6d96a8}, !- Handle
  {4d9fe9bf-2517-4398-913a-90d7ebdb1428}; !- Object Name

OS:EnergyManagementSystem:Sensor,
  {f432368f-37fc-47b8-a395-dcfc44cd7e40}, !- Handle
  ducts_rad_5,                            !- Name
  central_ac_and_furnace_airloop_0_SupSensLkToLv equip, !- Output Variable or Output Meter Index Key Name
  Other Equipment Radiant Heating Energy; !- Output Variable or Output Meter Name

OS:EnergyManagementSystem:Sensor,
  {8b45a0b1-9e64-47cf-9e91-4bf3b0ee0be4}, !- Handle
  ducts_conv_5,                           !- Name
  central_ac_and_furnace_airloop_0_SupSensLkToLv equip, !- Output Variable or Output Meter Index Key Name
  Other Equipment Convective Heating Energy; !- Output Variable or Output Meter Name

OS:EnergyManagementSystem:Sensor,
  {06ae448d-3ffb-43f9-b6b7-eaa4b410b6b1}, !- Handle
  ducts_rad_4,                            !- Name
  central_ac_and_furnace_airloop_0_SupLatLkToLv equip, !- Output Variable or Output Meter Index Key Name
  Other Equipment Radiant Heating Energy; !- Output Variable or Output Meter Name

OS:EnergyManagementSystem:Sensor,
  {731170d8-2254-4cf6-b48a-c0d5353f07c1}, !- Handle
  ducts_conv_4,                           !- Name
  central_ac_and_furnace_airloop_0_SupLatLkToLv equip, !- Output Variable or Output Meter Index Key Name
  Other Equipment Convective Heating Energy; !- Output Variable or Output Meter Name

OS:EnergyManagementSystem:Sensor,
  {0b888669-17c6-42ba-a556-61aa8f049658}, !- Handle
  ducts_rad_3,                            !- Name
  central_ac_and_furnace_airloop_0_SupCondToLv equip, !- Output Variable or Output Meter Index Key Name
  Other Equipment Radiant Heating Energy; !- Output Variable or Output Meter Name

OS:EnergyManagementSystem:Sensor,
  {af0eeb5e-f7f0-4968-8699-82de26bd6366}, !- Handle
  ducts_conv_3,                           !- Name
  central_ac_and_furnace_airloop_0_SupCondToLv equip, !- Output Variable or Output Meter Index Key Name
  Other Equipment Convective Heating Energy; !- Output Variable or Output Meter Name

OS:EnergyManagementSystem:Sensor,
  {c059e1a1-a03a-437f-a6eb-279c8be5ecb7}, !- Handle
  ducts_rad_2,                            !- Name
  central_ac_and_furnace_airloop_0_RetSensLkToRP equip, !- Output Variable or Output Meter Index Key Name
  Other Equipment Radiant Heating Energy; !- Output Variable or Output Meter Name

OS:EnergyManagementSystem:Sensor,
  {73acda32-7e66-4fbf-8b4a-94ca01fddeaa}, !- Handle
  ducts_conv_2,                           !- Name
  central_ac_and_furnace_airloop_0_RetSensLkToRP equip, !- Output Variable or Output Meter Index Key Name
  Other Equipment Convective Heating Energy; !- Output Variable or Output Meter Name

OS:EnergyManagementSystem:Sensor,
  {dccc0cc3-cff9-486b-80b7-449b8c2673c9}, !- Handle
  ducts_rad_1,                            !- Name
  central_ac_and_furnace_airloop_0_RetLatLkToRP equip, !- Output Variable or Output Meter Index Key Name
  Other Equipment Radiant Heating Energy; !- Output Variable or Output Meter Name

OS:EnergyManagementSystem:Sensor,
  {294e7d05-7b85-422e-b92e-6c87d85b96d9}, !- Handle
  ducts_conv_1,                           !- Name
  central_ac_and_furnace_airloop_0_RetLatLkToRP equip, !- Output Variable or Output Meter Index Key Name
  Other Equipment Convective Heating Energy; !- Output Variable or Output Meter Name

OS:EnergyManagementSystem:Sensor,
  {9b892e40-6916-4b91-81e1-6238c1b0bc85}, !- Handle
  ducts_rad,                              !- Name
  central_ac_and_furnace_airloop_0_RetCondToRP equip, !- Output Variable or Output Meter Index Key Name
  Other Equipment Radiant Heating Energy; !- Output Variable or Output Meter Name

OS:EnergyManagementSystem:Sensor,
  {21bd56fc-32ce-4cfe-8b3d-2b0c99a03e54}, !- Handle
  ducts_conv,                             !- Name
  central_ac_and_furnace_airloop_0_RetCondToRP equip, !- Output Variable or Output Meter Index Key Name
  Other Equipment Convective Heating Energy; !- Output Variable or Output Meter Name

OS:EnergyManagementSystem:Sensor,
  {763b9591-1ca6-4417-96d4-26b019774d9c}, !- Handle
  duct_mix_loss,                          !- Name
  living space,                           !- Output Variable or Output Meter Index Key Name
  Zone Mixing Sensible Heat Loss Energy;  !- Output Variable or Output Meter Name

OS:EnergyManagementSystem:Sensor,
  {5c7d573f-0fb7-4769-af4f-325128ae1cd1}, !- Handle
  duct_mix_gain,                          !- Name
  living space,                           !- Output Variable or Output Meter Index Key Name
  Zone Mixing Sensible Heat Gain Energy;  !- Output Variable or Output Meter Name

OS:EnergyManagementSystem:Sensor,
  {4791db83-27b4-4be4-b33d-885f573bdd99}, !- Handle
  mv_rad_5,                               !- Name
  mech vent house fan sensible load equip, !- Output Variable or Output Meter Index Key Name
  Other Equipment Radiant Heating Energy; !- Output Variable or Output Meter Name

OS:EnergyManagementSystem:Sensor,
  {e7c98c62-ed6f-4619-8d43-fae512452cc5}, !- Handle
  mv_conv_5,                              !- Name
  mech vent house fan sensible load equip, !- Output Variable or Output Meter Index Key Name
  Other Equipment Convective Heating Energy; !- Output Variable or Output Meter Name

OS:EnergyManagementSystem:Sensor,
  {6dc5dbfd-bf38-4cc3-9ca7-ecff3b5fe029}, !- Handle
  mv_rad_4,                               !- Name
  mech vent house fan latent load equip,  !- Output Variable or Output Meter Index Key Name
  Other Equipment Radiant Heating Energy; !- Output Variable or Output Meter Name

OS:EnergyManagementSystem:Sensor,
  {77ffd5d1-32a4-480e-aea3-485f1bbae8ea}, !- Handle
  mv_conv_4,                              !- Name
  mech vent house fan latent load equip,  !- Output Variable or Output Meter Index Key Name
  Other Equipment Convective Heating Energy; !- Output Variable or Output Meter Name

OS:EnergyManagementSystem:Sensor,
  {5180ca51-9cab-4bb3-a69f-e7e441ae5eb9}, !- Handle
  mv_rad_3,                               !- Name
  mech vent range fan 0,                  !- Output Variable or Output Meter Index Key Name
  Electric Equipment Radiant Heating Energy; !- Output Variable or Output Meter Name

OS:EnergyManagementSystem:Sensor,
  {a3e45d84-5de4-4f2a-90d0-fd2e9f2b14ed}, !- Handle
  mv_conv_3,                              !- Name
  mech vent range fan 0,                  !- Output Variable or Output Meter Index Key Name
  Electric Equipment Convective Heating Energy; !- Output Variable or Output Meter Name

OS:EnergyManagementSystem:Sensor,
  {8f79f5f5-9e65-40ef-ac12-41c41b30a9ba}, !- Handle
  mv_rad_2,                               !- Name
  mech vent house fan cfis,               !- Output Variable or Output Meter Index Key Name
  Electric Equipment Radiant Heating Energy; !- Output Variable or Output Meter Name

OS:EnergyManagementSystem:Sensor,
  {344a4a4a-c4ce-4376-8316-d1b6b05b12bc}, !- Handle
  mv_conv_2,                              !- Name
  mech vent house fan cfis,               !- Output Variable or Output Meter Index Key Name
  Electric Equipment Convective Heating Energy; !- Output Variable or Output Meter Name

OS:EnergyManagementSystem:Sensor,
  {045417b3-123b-4ffc-b79c-640a21f5378b}, !- Handle
  mv_rad_1,                               !- Name