
OS:Version,
  {0cadb5b2-dea1-4980-a347-4f7ba693db25}, !- Handle
  3.1.0;                                  !- Version Identifier

OS:WeatherFile,
  {b978b5a6-ab20-4b05-9a0d-bd620d6a4012}, !- Handle
  Buffalo Niagara Intl Ap,                !- City
  NY,                                     !- State Province Region
  USA,                                    !- Country
  TMY3,                                   !- Data Source
  725280,                                 !- WMO Number
  42.93,                                  !- Latitude {deg}
  -78.73,                                 !- Longitude {deg}
  -5,                                     !- Time Zone {hr}
  215,                                    !- Elevation {m}
  /home/ubuntu/UCI/Github/urbanopt-example-geojson-project/example_project_docker/run/baseline_scenario_test/14/../../../weather/USA_NY_Buffalo-Greater.Buffalo.Intl.AP.725280_TMY3.epw, !- Url
  6B50E0FF;                               !- Checksum

OS:YearDescription,
  {33a3a02f-9356-483b-9816-0defe8f90519}, !- Handle
  2017,                                   !- Calendar Year
  ,                                       !- Day of Week for Start Day
  ;                                       !- Is Leap Year

OS:Site,
  {fee87cbb-cfb9-4f35-bacc-63971a9e7aac}, !- Handle
  Buffalo Niagara Intl Ap_NY_USA,         !- Name
  42.93,                                  !- Latitude {deg}
  -78.73,                                 !- Longitude {deg}
  -5,                                     !- Time Zone {hr}
  215,                                    !- Elevation {m}
  Suburbs;                                !- Terrain

OS:ClimateZones,
  {6f868b51-bbb1-4a6e-9ce5-b79f72394dcc}, !- Handle
  Building America,                       !- Climate Zone Institution Name 1
  ,                                       !- Climate Zone Document Name 1
  0,                                      !- Climate Zone Document Year 1
  Cold;                                   !- Climate Zone Value 1

OS:RunPeriodControl:DaylightSavingTime,
  {93b28f29-f3c2-441b-b1ec-eb1b53ed029a}, !- Handle
  Mar 12,                                 !- Start Date
  Nov 5;                                  !- End Date

OS:Site:GroundTemperature:Shallow,
  {18333464-ce0e-4b32-baed-f84625a14f55}, !- Handle
  4.30207395723831,                       !- January Surface Ground Temperature {C}
  2.29327249652502,                       !- February Surface Ground Temperature {C}
  2.1324004715605,                        !- March Surface Ground Temperature {C}
  3.08567940719289,                       !- April Surface Ground Temperature {C}
  6.91256312497529,                       !- May Surface Ground Temperature {C}
  10.7216195949507,                       !- June Surface Ground Temperature {C}
  14.0238679822575,                       !- July Surface Ground Temperature {C}
  16.1157611184725,                       !- August Surface Ground Temperature {C}
  16.2934789303462,                       !- September Surface Ground Temperature {C}
  14.5920754632848,                       !- October Surface Ground Temperature {C}
  11.3740363486531,                       !- November Surface Ground Temperature {C}
  7.68182621661677;                       !- December Surface Ground Temperature {C}

OS:Site:GroundTemperature:Deep,
  {50b96cc0-ac12-458f-81a9-8c1170d59d9b}, !- Handle
  9.0488356164384,                        !- January Deep Ground Temperature {C}
  9.0488356164384,                        !- February Deep Ground Temperature {C}
  9.0488356164384,                        !- March Deep Ground Temperature {C}
  9.0488356164384,                        !- April Deep Ground Temperature {C}
  9.0488356164384,                        !- May Deep Ground Temperature {C}
  9.0488356164384,                        !- June Deep Ground Temperature {C}
  9.0488356164384,                        !- July Deep Ground Temperature {C}
  9.0488356164384,                        !- August Deep Ground Temperature {C}
  9.0488356164384,                        !- September Deep Ground Temperature {C}
  9.0488356164384,                        !- October Deep Ground Temperature {C}
  9.0488356164384,                        !- November Deep Ground Temperature {C}
  9.0488356164384;                        !- December Deep Ground Temperature {C}

OS:SimulationControl,
  {4d1444a6-7342-4015-87ae-35d252049223}, !- Handle
  ,                                       !- Do Zone Sizing Calculation
  ,                                       !- Do System Sizing Calculation
  ,                                       !- Do Plant Sizing Calculation
  No;                                     !- Run Simulation for Sizing Periods

OS:Timestep,
  {2030dedd-6cbd-400b-a6aa-93e1b09013a2}, !- Handle
  1;                                      !- Number of Timesteps per Hour

OS:ShadowCalculation,
  {f5a1ce4c-a222-40c9-9496-49bd4913896c}, !- Handle
  PolygonClipping,                        !- Shading Calculation Method
  ,                                       !- Shading Calculation Update Frequency Method
  20,                                     !- Shading Calculation Update Frequency
  200,                                    !- Maximum Figures in Shadow Overlap Calculations
  ,                                       !- Polygon Clipping Algorithm
  512,                                    !- Pixel Counting Resolution
  ,                                       !- Sky Diffuse Modeling Algorithm
  No,                                     !- Output External Shading Calculation Results
  No,                                     !- Disable Self-Shading Within Shading Zone Groups
  No;                                     !- Disable Self-Shading From Shading Zone Groups to Other Zones

OS:SurfaceConvectionAlgorithm:Outside,
  {e7f96f02-ee61-4efa-8648-a51264ca3c79}, !- Handle
  DOE-2;                                  !- Algorithm

OS:SurfaceConvectionAlgorithm:Inside,
  {ec00475c-cd7b-44e0-9b6d-7718e782024f}, !- Handle
  TARP;                                   !- Algorithm

OS:ZoneCapacitanceMultiplier:ResearchSpecial,
  {aecef032-d136-4b76-a6ad-3a78f083138d}, !- Handle
  ,                                       !- Temperature Capacity Multiplier
  15,                                     !- Humidity Capacity Multiplier
  ;                                       !- Carbon Dioxide Capacity Multiplier

OS:ConvergenceLimits,
  {e4d6f0f8-2d0b-491e-bcbb-4f8b08a9727a}, !- Handle
  0;                                      !- Minimum System Timestep {minutes}

OS:RunPeriod,
  {9cc4cd42-2074-4754-b412-edb9ca7b71a1}, !- Handle
  Run Period 1,                           !- Name
  1,                                      !- Begin Month
  1,                                      !- Begin Day of Month
  12,                                     !- End Month
  31,                                     !- End Day of Month
  ,                                       !- Use Weather File Holidays and Special Days
  ,                                       !- Use Weather File Daylight Saving Period
  ,                                       !- Apply Weekend Holiday Rule
  ,                                       !- Use Weather File Rain Indicators
  ,                                       !- Use Weather File Snow Indicators
  ;                                       !- Number of Times Runperiod to be Repeated

OS:External:File,
  {6f44d62b-dd9c-4def-bf21-07cd50aa80c1}, !- Handle
  External File 1,                        !- Name
  schedules.csv;                          !- File Name

OS:ThermalZone,
  {ed6360b8-088c-4f08-8eb8-803f4ce97a5d}, !- Handle
  living space,                           !- Name
  ,                                       !- Multiplier
  ,                                       !- Ceiling Height {m}
  692.06373070848,                        !- Volume {m3}
  ,                                       !- Floor Area {m2}
  ,                                       !- Zone Inside Convection Algorithm
  ,                                       !- Zone Outside Convection Algorithm
  ,                                       !- Zone Conditioning Equipment List Name
  {0d1011c0-7e4e-4b49-ac75-b4397f3ec8f6}, !- Zone Air Inlet Port List
  {80d718cc-eb85-4760-b62a-8ad99c2e1922}, !- Zone Air Exhaust Port List
  {923c262e-a9d6-4868-8646-a8d9d4be634c}, !- Zone Air Node Name
  {7a7373d9-6fc6-4cf6-92eb-e19b98caab33}, !- Zone Return Air Port List
  ,                                       !- Primary Daylighting Control Name
  ,                                       !- Fraction of Zone Controlled by Primary Daylighting Control
  ,                                       !- Secondary Daylighting Control Name
  ,                                       !- Fraction of Zone Controlled by Secondary Daylighting Control
  ,                                       !- Illuminance Map Name
  ,                                       !- Group Rendering Name
  {4b7c9575-c1b0-4f75-a5fc-454a9d99191e}, !- Thermostat Name
  No;                                     !- Use Ideal Air Loads

OS:Node,
  {9117c5c0-e696-49cf-a702-b9f0f224c489}, !- Handle
  Node 1,                                 !- Name
  {923c262e-a9d6-4868-8646-a8d9d4be634c}, !- Inlet Port
  ;                                       !- Outlet Port

OS:Connection,
  {923c262e-a9d6-4868-8646-a8d9d4be634c}, !- Handle
  {6d60cd69-99a9-4534-8dc5-ead5dd891b11}, !- Name
  {ed6360b8-088c-4f08-8eb8-803f4ce97a5d}, !- Source Object
  11,                                     !- Outlet Port
  {9117c5c0-e696-49cf-a702-b9f0f224c489}, !- Target Object
  2;                                      !- Inlet Port

OS:PortList,
  {0d1011c0-7e4e-4b49-ac75-b4397f3ec8f6}, !- Handle
  {61f95bfe-6f86-4805-becf-447dc80dbb32}, !- Name
  {ed6360b8-088c-4f08-8eb8-803f4ce97a5d}, !- HVAC Component
  {5ceaeef9-8b14-4dc4-9a2b-e16431aedc55}, !- Port 1
  {f014a065-cf45-4b2c-9910-871fc87b8586}; !- Port 2

OS:PortList,
  {80d718cc-eb85-4760-b62a-8ad99c2e1922}, !- Handle
  {3b4b09b8-7821-4148-abee-a5e287cf9eba}, !- Name
  {ed6360b8-088c-4f08-8eb8-803f4ce97a5d}, !- HVAC Component
  {75e559f0-1145-4245-a43c-dea903dbf54d}; !- Port 1

OS:PortList,
  {7a7373d9-6fc6-4cf6-92eb-e19b98caab33}, !- Handle
  {bade448b-84bd-4cf1-9c2a-786f23a086c5}, !- Name
  {ed6360b8-088c-4f08-8eb8-803f4ce97a5d}, !- HVAC Component
  {1edb4142-fdf4-4da0-ae0d-8b3ed00099a4}; !- Port 1

OS:Sizing:Zone,
  {e8751cf9-d960-4436-92f5-67982807bbd9}, !- Handle
  {ed6360b8-088c-4f08-8eb8-803f4ce97a5d}, !- Zone or ZoneList Name
  SupplyAirTemperature,                   !- Zone Cooling Design Supply Air Temperature Input Method
  14,                                     !- Zone Cooling Design Supply Air Temperature {C}
  11.11,                                  !- Zone Cooling Design Supply Air Temperature Difference {deltaC}
  SupplyAirTemperature,                   !- Zone Heating Design Supply Air Temperature Input Method
  40,                                     !- Zone Heating Design Supply Air Temperature {C}
  11.11,                                  !- Zone Heating Design Supply Air Temperature Difference {deltaC}
  0.0085,                                 !- Zone Cooling Design Supply Air Humidity Ratio {kg-H2O/kg-air}
  0.008,                                  !- Zone Heating Design Supply Air Humidity Ratio {kg-H2O/kg-air}
  ,                                       !- Zone Heating Sizing Factor
  ,                                       !- Zone Cooling Sizing Factor
  DesignDay,                              !- Cooling Design Air Flow Method
  ,                                       !- Cooling Design Air Flow Rate {m3/s}
  ,                                       !- Cooling Minimum Air Flow per Zone Floor Area {m3/s-m2}
  ,                                       !- Cooling Minimum Air Flow {m3/s}
  ,                                       !- Cooling Minimum Air Flow Fraction
  DesignDay,                              !- Heating Design Air Flow Method
  ,                                       !- Heating Design Air Flow Rate {m3/s}
  ,                                       !- Heating Maximum Air Flow per Zone Floor Area {m3/s-m2}
  ,                                       !- Heating Maximum Air Flow {m3/s}
  ,                                       !- Heating Maximum Air Flow Fraction
  No,                                     !- Account for Dedicated Outdoor Air System
  NeutralSupplyAir,                       !- Dedicated Outdoor Air System Control Strategy
  autosize,                               !- Dedicated Outdoor Air Low Setpoint Temperature for Design {C}
  autosize;                               !- Dedicated Outdoor Air High Setpoint Temperature for Design {C}

OS:ZoneHVAC:EquipmentList,
  {85ec8542-6259-4b4e-819e-83c9c26347c1}, !- Handle
  Zone HVAC Equipment List 1,             !- Name
  {ed6360b8-088c-4f08-8eb8-803f4ce97a5d}, !- Thermal Zone
  ,                                       !- Load Distribution Scheme
  {8d6f33c2-d413-4f7a-8790-92e5a3869574}, !- Zone Equipment 1
  1,                                      !- Zone Equipment Cooling Sequence 1
  1,                                      !- Zone Equipment Heating or No-Load Sequence 1
  {66415200-e92e-4feb-9f7d-103ba5579adf}, !- Zone Equipment Sequential Cooling Fraction Schedule Name 1
  {7bc06820-6d02-47d7-9421-1a8d4bf187b1}, !- Zone Equipment Sequential Heating Fraction Schedule Name 1
  {f5291a22-1d3d-434e-99d9-1e166c05e56c}, !- Zone Equipment 2
  2,                                      !- Zone Equipment Cooling Sequence 2
  2,                                      !- Zone Equipment Heating or No-Load Sequence 2
  {06728f84-31b1-45d9-9807-080cbeaeb7e3}, !- Zone Equipment Sequential Cooling Fraction Schedule Name 2
  {cab3cb39-6534-4cbc-8c8e-4cca097c53f7}; !- Zone Equipment Sequential Heating Fraction Schedule Name 2

OS:Space,
  {c956e21f-82f2-4bdc-b752-e600f867bbd9}, !- Handle
  living space,                           !- Name
  {16f59f37-f5c4-4384-a477-34ec8344967c}, !- Space Type Name
  ,                                       !- Default Construction Set Name
  ,                                       !- Default Schedule Set Name
  ,                                       !- Direction of Relative North {deg}
  ,                                       !- X Origin {m}
  ,                                       !- Y Origin {m}
  ,                                       !- Z Origin {m}
  ,                                       !- Building Story Name
  {ed6360b8-088c-4f08-8eb8-803f4ce97a5d}; !- Thermal Zone Name

OS:SpaceType,
  {16f59f37-f5c4-4384-a477-34ec8344967c}, !- Handle
  Space Type 1,                           !- Name
  ,                                       !- Default Construction Set Name
  ,                                       !- Default Schedule Set Name
  ,                                       !- Group Rendering Name
  ,                                       !- Design Specification Outdoor Air Object Name
  ,                                       !- Standards Template
  ,                                       !- Standards Building Type
  living space;                           !- Standards Space Type

OS:Schedule:Ruleset,
  {bcb08717-bde6-4908-a000-6685719d50e7}, !- Handle
  heating season,                         !- Name
  {b369d389-ca42-41d3-a427-29446a800db8}, !- Schedule Type Limits Name
  {8ea98447-57f6-4bb4-a9c1-ed6c87e56d60}; !- Default Day Schedule Name

OS:Schedule:Day,
  {8ea98447-57f6-4bb4-a9c1-ed6c87e56d60}, !- Handle
  Schedule Day 1,                         !- Name
  {b369d389-ca42-41d3-a427-29446a800db8}, !- Schedule Type Limits Name
  ,                                       !- Interpolate to Timestep
  24,                                     !- Hour 1
  0,                                      !- Minute 1
  0;                                      !- Value Until Time 1

OS:Schedule:Rule,
  {1f4d8ee3-93eb-43fe-9eab-24b72fc46ce4}, !- Handle
  heating season allday ruleset1,         !- Name
  {bcb08717-bde6-4908-a000-6685719d50e7}, !- Schedule Ruleset Name
  0,                                      !- Rule Order
  {462fe9a2-2192-4737-b739-d76780415015}, !- Day Schedule Name
  Yes,                                    !- Apply Sunday
  Yes,                                    !- Apply Monday
  Yes,                                    !- Apply Tuesday
  Yes,                                    !- Apply Wednesday
  Yes,                                    !- Apply Thursday
  Yes,                                    !- Apply Friday
  Yes,                                    !- Apply Saturday
  DateRange,                              !- Date Specification Type
  1,                                      !- Start Month
  1,                                      !- Start Day
  12,                                     !- End Month
  31;                                     !- End Day

OS:Schedule:Day,
  {462fe9a2-2192-4737-b739-d76780415015}, !- Handle
  heating season allday1,                 !- Name
  {b369d389-ca42-41d3-a427-29446a800db8}, !- Schedule Type Limits Name
  ,                                       !- Interpolate to Timestep
  24,                                     !- Hour 1
  0,                                      !- Minute 1
  1;                                      !- Value Until Time 1

OS:ScheduleTypeLimits,
  {b369d389-ca42-41d3-a427-29446a800db8}, !- Handle
  OnOff,                                  !- Name
  0,                                      !- Lower Limit Value
  1,                                      !- Upper Limit Value
  Discrete;                               !- Numeric Type

OS:Schedule:Ruleset,
  {fe2465a0-65e7-477e-8f1a-a40b59f2d99e}, !- Handle
  cooling season,                         !- Name
  {b369d389-ca42-41d3-a427-29446a800db8}, !- Schedule Type Limits Name
  {b51694af-9eaa-43f1-9145-84367521cd44}; !- Default Day Schedule Name

OS:Schedule:Day,
  {b51694af-9eaa-43f1-9145-84367521cd44}, !- Handle
  Schedule Day 2,                         !- Name
  {b369d389-ca42-41d3-a427-29446a800db8}, !- Schedule Type Limits Name
  ,                                       !- Interpolate to Timestep
  24,                                     !- Hour 1
  0,                                      !- Minute 1
  0;                                      !- Value Until Time 1

OS:Schedule:Rule,
  {d12b10fc-e21a-4121-8b5f-89543c65dee8}, !- Handle
  cooling season allday ruleset1,         !- Name
  {fe2465a0-65e7-477e-8f1a-a40b59f2d99e}, !- Schedule Ruleset Name
  0,                                      !- Rule Order
  {982fd12e-5f61-4f88-b20c-da6507ec38dd}, !- Day Schedule Name
  Yes,                                    !- Apply Sunday
  Yes,                                    !- Apply Monday
  Yes,                                    !- Apply Tuesday
  Yes,                                    !- Apply Wednesday
  Yes,                                    !- Apply Thursday
  Yes,                                    !- Apply Friday
  Yes,                                    !- Apply Saturday
  DateRange,                              !- Date Specification Type
  1,                                      !- Start Month
  1,                                      !- Start Day
  12,                                     !- End Month
  31;                                     !- End Day

OS:Schedule:Day,
  {982fd12e-5f61-4f88-b20c-da6507ec38dd}, !- Handle
  cooling season allday1,                 !- Name
  {b369d389-ca42-41d3-a427-29446a800db8}, !- Schedule Type Limits Name
  ,                                       !- Interpolate to Timestep
  24,                                     !- Hour 1
  0,                                      !- Minute 1
  1;                                      !- Value Until Time 1

OS:Schedule:Ruleset,
  {d742df5d-f7b0-4f60-b267-beff34a1461a}, !- Handle
  heating setpoint,                       !- Name
  {618d2b6a-dab0-4b68-97be-5006c25bc73d}, !- Schedule Type Limits Name
  {af38f99f-de46-41ef-ad51-3e50cb60dbfd}; !- Default Day Schedule Name

OS:Schedule:Day,
  {af38f99f-de46-41ef-ad51-3e50cb60dbfd}, !- Handle
  Schedule Day 3,                         !- Name
  {618d2b6a-dab0-4b68-97be-5006c25bc73d}, !- Schedule Type Limits Name
  ,                                       !- Interpolate to Timestep
  24,                                     !- Hour 1
  0,                                      !- Minute 1
  0;                                      !- Value Until Time 1

OS:Schedule:Rule,
  {afe811aa-b211-45cc-abb8-59744c790aac}, !- Handle
  heating setpoint allday ruleset1,       !- Name
  {d742df5d-f7b0-4f60-b267-beff34a1461a}, !- Schedule Ruleset Name
  0,                                      !- Rule Order
  {ca7f7e7e-858a-41c4-85a6-33a837563532}, !- Day Schedule Name
  Yes,                                    !- Apply Sunday
  Yes,                                    !- Apply Monday
  Yes,                                    !- Apply Tuesday
  Yes,                                    !- Apply Wednesday
  Yes,                                    !- Apply Thursday
  Yes,                                    !- Apply Friday
  Yes,                                    !- Apply Saturday
  DateRange,                              !- Date Specification Type
  1,                                      !- Start Month
  1,                                      !- Start Day
  12,                                     !- End Month
  31;                                     !- End Day

OS:Schedule:Day,
  {ca7f7e7e-858a-41c4-85a6-33a837563532}, !- Handle
  heating setpoint allday1,               !- Name
  {618d2b6a-dab0-4b68-97be-5006c25bc73d}, !- Schedule Type Limits Name
  ,                                       !- Interpolate to Timestep
  24,                                     !- Hour 1
  0,                                      !- Minute 1
  21.6666666666667;                       !- Value Until Time 1

OS:Schedule:Ruleset,
  {4233f9c9-fc5c-4a0d-9584-352faabd041b}, !- Handle
  cooling setpoint,                       !- Name
  {618d2b6a-dab0-4b68-97be-5006c25bc73d}, !- Schedule Type Limits Name
  {27410ecb-2819-4a11-a62f-e0ab40a7b281}; !- Default Day Schedule Name

OS:Schedule:Day,
  {27410ecb-2819-4a11-a62f-e0ab40a7b281}, !- Handle
  Schedule Day 4,                         !- Name
  {618d2b6a-dab0-4b68-97be-5006c25bc73d}, !- Schedule Type Limits Name
  ,                                       !- Interpolate to Timestep
  24,                                     !- Hour 1
  0,                                      !- Minute 1
  0;                                      !- Value Until Time 1

OS:Schedule:Rule,
  {93666e5b-eeb6-438e-84e8-eeb9c5fd8ef6}, !- Handle
  cooling setpoint allday ruleset1,       !- Name
  {4233f9c9-fc5c-4a0d-9584-352faabd041b}, !- Schedule Ruleset Name
  2,                                      !- Rule Order
  {0f5b11f9-34d0-4c5b-9bdb-d70e20d110e0}, !- Day Schedule Name
  Yes,                                    !- Apply Sunday
  Yes,                                    !- Apply Monday
  Yes,                                    !- Apply Tuesday
  Yes,                                    !- Apply Wednesday
  Yes,                                    !- Apply Thursday
  Yes,                                    !- Apply Friday
  Yes,                                    !- Apply Saturday
  DateRange,                              !- Date Specification Type
  1,                                      !- Start Month
  1,                                      !- Start Day
  5,                                      !- End Month
  31;                                     !- End Day

OS:Schedule:Day,
  {0f5b11f9-34d0-4c5b-9bdb-d70e20d110e0}, !- Handle
  cooling setpoint allday1,               !- Name
  {618d2b6a-dab0-4b68-97be-5006c25bc73d}, !- Schedule Type Limits Name
  ,                                       !- Interpolate to Timestep
  24,                                     !- Hour 1
  0,                                      !- Minute 1
  24.4444444444444;                       !- Value Until Time 1

OS:Schedule:Rule,
  {e9ed820a-6a34-4363-8db7-5d03bc7a81fe}, !- Handle
  cooling setpoint allday ruleset6,       !- Name
  {4233f9c9-fc5c-4a0d-9584-352faabd041b}, !- Schedule Ruleset Name
  1,                                      !- Rule Order
  {3e860ace-a3cf-412d-910d-26a9f3b95ee6}, !- Day Schedule Name
  Yes,                                    !- Apply Sunday
  Yes,                                    !- Apply Monday
  Yes,                                    !- Apply Tuesday
  Yes,                                    !- Apply Wednesday
  Yes,                                    !- Apply Thursday
  Yes,                                    !- Apply Friday
  Yes,                                    !- Apply Saturday
  DateRange,                              !- Date Specification Type
  6,                                      !- Start Month
  1,                                      !- Start Day
  8,                                      !- End Month
  31;                                     !- End Day

OS:Schedule:Day,
  {3e860ace-a3cf-412d-910d-26a9f3b95ee6}, !- Handle
  cooling setpoint allday6,               !- Name
  {618d2b6a-dab0-4b68-97be-5006c25bc73d}, !- Schedule Type Limits Name
  ,                                       !- Interpolate to Timestep
  24,                                     !- Hour 1
  0,                                      !- Minute 1
  24.7222222222222;                       !- Value Until Time 1

OS:Schedule:Rule,
  {cc8c6d49-cca2-4bfe-bcd2-db56410f8bd8}, !- Handle
  cooling setpoint allday ruleset9,       !- Name
  {4233f9c9-fc5c-4a0d-9584-352faabd041b}, !- Schedule Ruleset Name
  0,                                      !- Rule Order
  {557eb6ea-497d-42f6-a13f-59cfdc68aeb0}, !- Day Schedule Name
  Yes,                                    !- Apply Sunday
  Yes,                                    !- Apply Monday
  Yes,                                    !- Apply Tuesday
  Yes,                                    !- Apply Wednesday
  Yes,                                    !- Apply Thursday
  Yes,                                    !- Apply Friday
  Yes,                                    !- Apply Saturday
  DateRange,                              !- Date Specification Type
  9,                                      !- Start Month
  1,                                      !- Start Day
  12,                                     !- End Month
  31;                                     !- End Day

OS:Schedule:Day,
  {557eb6ea-497d-42f6-a13f-59cfdc68aeb0}, !- Handle
  cooling setpoint allday9,               !- Name
  {618d2b6a-dab0-4b68-97be-5006c25bc73d}, !- Schedule Type Limits Name
  ,                                       !- Interpolate to Timestep
  24,                                     !- Hour 1
  0,                                      !- Minute 1
  24.4444444444444;                       !- Value Until Time 1

OS:ThermostatSetpoint:DualSetpoint,
  {4b7c9575-c1b0-4f75-a5fc-454a9d99191e}, !- Handle
  living space temperature setpoint,      !- Name
  {d742df5d-f7b0-4f60-b267-beff34a1461a}, !- Heating Setpoint Temperature Schedule Name
  {4233f9c9-fc5c-4a0d-9584-352faabd041b}; !- Cooling Setpoint Temperature Schedule Name

OS:ScheduleTypeLimits,
  {618d2b6a-dab0-4b68-97be-5006c25bc73d}, !- Handle
  Temperature,                            !- Name
  ,                                       !- Lower Limit Value
  ,                                       !- Upper Limit Value
  Continuous,                             !- Numeric Type
  Temperature;                            !- Unit Type

OS:Surface,
  {a0c847ee-1dbb-45a8-af72-05600cc2c0d5}, !- Handle
  Surface_8,                              !- Name
  RoofCeiling,                            !- Surface Type
  {0b53f46b-64b3-4058-81a0-2f99f105fb5f}, !- Construction Name
  {ea745e12-e30d-4fd6-ba39-b2e11f9643ad}, !- Space Name
  Outdoors,                               !- Outside Boundary Condition
  ,                                       !- Outside Boundary Condition Object
  SunExposed,                             !- Sun Exposure
  WindExposed,                            !- Wind Exposure
  ,                                       !- View Factor to Ground
  ,                                       !- Number of Vertices
  -14.2233445848378, -57.8769429863141, 2.4384, !- X,Y,Z Vertex 1 {m}
  -14.2233445848378, -46.6100572650511, 8.0718428606315, !- X,Y,Z Vertex 2 {m}
  -26.8201057685707, -46.6100572650511, 8.0718428606315, !- X,Y,Z Vertex 3 {m}
  -26.8201057685707, -57.8769429863141, 2.4384; !- X,Y,Z Vertex 4 {m}

OS:AdditionalProperties,
  {fb8a4741-9311-419f-93ba-16d84ae047f0}, !- Handle
  {a0c847ee-1dbb-45a8-af72-05600cc2c0d5}, !- Object Name
  Length,                                 !- Feature Name 1
  Double,                                 !- Feature Data Type 1
  41.32795663954365,                      !- Feature Value 1
  Width,                                  !- Feature Name 2
  Double,                                 !- Feature Data Type 2
  41.32795663954365,                      !- Feature Value 2
  Azimuth,                                !- Feature Name 3
  Integer,                                !- Feature Data Type 3
  180,                                    !- Feature Value 3
  Tilt,                                   !- Feature Name 4
  Double,                                 !- Feature Data Type 4
  0.5,                                    !- Feature Value 4
  SurfaceType,                            !- Feature Name 5
  String,                                 !- Feature Data Type 5
  Roof;                                   !- Feature Value 5

OS:ThermalZone,
  {6e7e0d78-1998-4782-bc8b-ac13224724dc}, !- Handle
  attic - vented,                         !- Name
  ,                                       !- Multiplier
  ,                                       !- Ceiling Height {m}
  356.389957095237,                       !- Volume {m3}
  ,                                       !- Floor Area {m2}