
OS:Version,
  {12f4df1b-5c65-4914-b1f9-ddabd0dd7aa0}, !- Handle
  3.1.0;                                  !- Version Identifier

OS:Facility,
  {5c29f2c5-b2fe-4f75-b4f6-c626a2863fbe}; !- Handle

OS:LifeCycleCost:Parameters,
  {d4f00b3d-9a6c-4f43-b999-918143cdb26e}, !- Handle
  ,                                       !- Analysis Type
  ,                                       !- Discounting Convention
  ,                                       !- Inflation Approach
  ,                                       !- Real Discount Rate
  ,                                       !- Nominal Discount Rate
  ,                                       !- Inflation
  ,                                       !- Base Date Month
  ,                                       !- Base Date Year
  ,                                       !- Service Date Month
  ,                                       !- Service Date Year
  ;                                       !- Length of Study Period in Years

OS:EnergyManagementSystem:ProgramCallingManager,
  {c9b30d1b-3f04-4f8b-9d7b-0fa6b3877012}, !- Handle
  component_loads_program calling manager, !- Name
  EndOfZoneTimestepAfterZoneReporting,    !- EnergyPlus Model Calling Point
  {a37a1170-9976-4ee4-9330-4139d9a04b5b}; !- Program Name 1

OS:EnergyManagementSystem:Program,
  {a37a1170-9976-4ee4-9330-4139d9a04b5b}, !- Handle
  component_loads_program,                !- Name
  Set hr_walls = 0,                       !- Program Line 1
  Set hr_walls = hr_walls + s_conv_1 + s_ig_1 + s_sol_1 + s_lgt_1 + s_surf_1, !- Program Line 2
  Set hr_walls = hr_walls + s_conv_2 + s_ig_2 + s_sol_2 + s_lgt_2 + s_surf_2, !- Program Line 3
  Set hr_walls = hr_walls + s_conv_3 + s_ig_3 + s_sol_3 + s_lgt_3 + s_surf_3, !- Program Line 4
  Set hr_walls = hr_walls + s_conv_4 + s_ig_4 + s_sol_4 + s_lgt_4 + s_surf_4, !- Program Line 5
  Set hr_rim_joists = 0,                  !- Program Line 6
  Set hr_foundation_walls = 0,            !- Program Line 7
  Set hr_floors = 0,                      !- Program Line 8
  Set hr_floors = hr_floors + s_conv + s_ig + s_sol + s_lgt + s_surf, !- Program Line 9
  Set hr_slabs = 0,                       !- Program Line 10
  Set hr_ceilings = 0,                    !- Program Line 11
  Set hr_ceilings = hr_ceilings + s_conv_5 + s_ig_5 + s_sol_5 + s_lgt_5 + s_surf_5, !- Program Line 12
  Set hr_roofs = 0,                       !- Program Line 13
  Set hr_windows = 0,                     !- Program Line 14
  Set hr_windows = hr_windows - ss_trans_in + ss_back_out * ZoneTimestep * 3600 + ss_sw_abs * ZoneTimestep * 3600 - ss_sol_abs + ss_trans_out * ZoneTimestep * 3600 + ss_conv + ss_ig + ss_surf, !- Program Line 15
  Set hr_windows = hr_windows - ss_trans_in_1 + ss_back_out_1 * ZoneTimestep * 3600 + ss_sw_abs_1 * ZoneTimestep * 3600 - ss_sol_abs_1 + ss_trans_out_1 * ZoneTimestep * 3600 + ss_conv_1 + ss_ig_1 + ss_surf_1, !- Program Line 16
  Set hr_windows = hr_windows - ss_trans_in_2 + ss_back_out_2 * ZoneTimestep * 3600 + ss_sw_abs_2 * ZoneTimestep * 3600 - ss_sol_abs_2 + ss_trans_out_2 * ZoneTimestep * 3600 + ss_conv_2 + ss_ig_2 + ss_surf_2, !- Program Line 17
  Set hr_windows = hr_windows - ss_trans_in_3 + ss_back_out_3 * ZoneTimestep * 3600 + ss_sw_abs_3 * ZoneTimestep * 3600 - ss_sol_abs_3 + ss_trans_out_3 * ZoneTimestep * 3600 + ss_conv_4 + ss_ig_4 + ss_surf_4, !- Program Line 18
  Set hr_doors = 0,                       !- Program Line 19
  Set hr_doors = hr_doors + ss_sol + ss_lgt + ss_conv_3 + ss_ig_3 + ss_surf_3, !- Program Line 20
  Set hr_skylights = 0,                   !- Program Line 21
  Set hr_internal_mass = 0,               !- Program Line 22
  Set hr_internal_mass = hr_internal_mass + im_conv + im_ig + im_sol + im_lgt + im_surf, !- Program Line 23
  Set hr_internal_mass = hr_internal_mass + im_conv_1 + im_ig_1 + im_sol_1 + im_lgt_1 + im_surf_1, !- Program Line 24
  Set hr_intgains = 0,                    !- Program Line 25
  Set hr_intgains = hr_intgains - ig_ee_conv - ig_ee_rad, !- Program Line 26
  Set hr_intgains = hr_intgains - ig_ee_conv_1 - ig_ee_rad_1, !- Program Line 27
  Set hr_intgains = hr_intgains - ig_ee_conv_2 - ig_ee_rad_2, !- Program Line 28
  Set hr_intgains = hr_intgains - ig_ee_conv_3 - ig_ee_rad_3, !- Program Line 29
  Set hr_intgains = hr_intgains - ig_ee_conv_4 - ig_ee_rad_4, !- Program Line 30
  Set hr_intgains = hr_intgains - ig_ee_conv_5 - ig_ee_rad_5, !- Program Line 31
  Set hr_intgains = hr_intgains - ig_ee_conv_6 - ig_ee_rad_6, !- Program Line 32
  Set hr_intgains = hr_intgains - ig_ee_conv_7 - ig_ee_rad_7, !- Program Line 33
  Set hr_intgains = hr_intgains - ig_ee_conv_8 - ig_ee_rad_8, !- Program Line 34
  Set hr_intgains = hr_intgains - ig_oe_conv - ig_oe_rad, !- Program Line 35
  Set hr_intgains = hr_intgains - ig_oe_conv_1 - ig_oe_rad_1, !- Program Line 36
  Set hr_intgains = hr_intgains - ig_oe_conv_2 - ig_oe_rad_2, !- Program Line 37
  Set hr_intgains = hr_intgains - ig_oe_conv_3 - ig_oe_rad_3, !- Program Line 38
  Set hr_intgains = hr_intgains - ig_oe_conv_4 - ig_oe_rad_4, !- Program Line 39
  Set hr_intgains = hr_intgains - ig_lgt_conv - ig_lgt_rad - ig_lgt_vis, !- Program Line 40
  Set hr_intgains = hr_intgains - ig_ppl_conv - ig_ppl_rad, !- Program Line 41
  Set hr_intgains = hr_intgains + dhw_loss * (0.64*(1-dhw_rtf) + 1.0*dhw_rtf), !- Program Line 42
  Set hr_airflow_rate = infil_flow_act + natural_vent_flow_act + whole_house_fan_flow_act, !- Program Line 43
  If hr_airflow_rate > 0,                 !- Program Line 44
  Set hr_infil = (airflow_loss - airflow_gain) * infil_flow_act / hr_airflow_rate, !- Program Line 45
  Set hr_natvent = (airflow_loss - airflow_gain) * natural_vent_flow_act / hr_airflow_rate, !- Program Line 46
  Set hr_whf = (airflow_loss - airflow_gain) * whole_house_fan_flow_act / hr_airflow_rate, !- Program Line 47
  Else,                                   !- Program Line 48
  Set hr_infil = 0,                       !- Program Line 49
  Set hr_natvent = 0,                     !- Program Line 50
  Set hr_whf = 0,                         !- Program Line 51
  Set hr_mechvent = 0,                    !- Program Line 52
  EndIf,                                  !- Program Line 53
  Set hr_mechvent = 0,                    !- Program Line 54
  Set hr_mechvent = hr_mechvent - mv_conv, !- Program Line 55
  Set hr_mechvent = hr_mechvent - mv_rad, !- Program Line 56
  Set hr_mechvent = hr_mechvent - mv_conv_1, !- Program Line 57
  Set hr_mechvent = hr_mechvent - mv_rad_1, !- Program Line 58
  Set hr_mechvent = hr_mechvent - mv_conv_2, !- Program Line 59
  Set hr_mechvent = hr_mechvent - mv_rad_2, !- Program Line 60
  Set hr_mechvent = hr_mechvent - mv_conv_3, !- Program Line 61
  Set hr_mechvent = hr_mechvent - mv_rad_3, !- Program Line 62
  Set hr_mechvent = hr_mechvent - mv_conv_4, !- Program Line 63
  Set hr_mechvent = hr_mechvent - mv_rad_4, !- Program Line 64
  Set hr_mechvent = hr_mechvent - mv_conv_5, !- Program Line 65
  Set hr_mechvent = hr_mechvent - mv_rad_5, !- Program Line 66
  Set hr_ducts = 0,                       !- Program Line 67
  Set hr_ducts = hr_ducts - ducts_conv - ducts_rad, !- Program Line 68
  Set hr_ducts = hr_ducts - ducts_conv_1 - ducts_rad_1, !- Program Line 69
  Set hr_ducts = hr_ducts - ducts_conv_2 - ducts_rad_2, !- Program Line 70
  Set hr_ducts = hr_ducts - ducts_conv_3 - ducts_rad_3, !- Program Line 71
  Set hr_ducts = hr_ducts - ducts_conv_4 - ducts_rad_4, !- Program Line 72
  Set hr_ducts = hr_ducts - ducts_conv_5 - ducts_rad_5, !- Program Line 73
  Set hr_ducts = hr_ducts + (duct_mix_loss - duct_mix_gain), !- Program Line 74
  Set htg_mode = 0,                       !- Program Line 75
  Set clg_mode = 0,                       !- Program Line 76
  If (htg_load_liv > 0),                  !- Program Line 77
  Set htg_mode = 1,                       !- Program Line 78
  ElseIf (clg_load_liv > 0),              !- Program Line 79
  Set clg_mode = 1,                       !- Program Line 80
  ElseIf (cool_season > 0),               !- Program Line 81
  Set clg_mode = 1,                       !- Program Line 82
  Else,                                   !- Program Line 83
  Set htg_mode = 1,                       !- Program Line 84
  EndIf,                                  !- Program Line 85
  Set loads_htg_walls = hr_walls * htg_mode, !- Program Line 86
  Set loads_htg_rim_joists = hr_rim_joists * htg_mode, !- Program Line 87
  Set loads_htg_foundation_walls = hr_foundation_walls * htg_mode, !- Program Line 88
  Set loads_htg_floors = hr_floors * htg_mode, !- Program Line 89
  Set loads_htg_slabs = hr_slabs * htg_mode, !- Program Line 90
  Set loads_htg_ceilings = hr_ceilings * htg_mode, !- Program Line 91
  Set loads_htg_roofs = hr_roofs * htg_mode, !- Program Line 92
  Set loads_htg_windows = hr_windows * htg_mode, !- Program Line 93
  Set loads_htg_doors = hr_doors * htg_mode, !- Program Line 94
  Set loads_htg_skylights = hr_skylights * htg_mode, !- Program Line 95
  Set loads_htg_internal_mass = hr_internal_mass * htg_mode, !- Program Line 96
  Set loads_htg_intgains = hr_intgains * htg_mode, !- Program Line 97
  Set loads_htg_infil = hr_infil * htg_mode, !- Program Line 98
  Set loads_htg_mechvent = hr_mechvent * htg_mode, !- Program Line 99
  Set loads_htg_natvent = hr_natvent * htg_mode, !- Program Line 100
  Set loads_htg_whf = hr_whf * htg_mode,  !- Program Line 101
  Set loads_htg_ducts = hr_ducts * htg_mode, !- Program Line 102
  Set loads_clg_walls = -hr_walls * clg_mode, !- Program Line 103
  Set loads_clg_rim_joists = -hr_rim_joists * clg_mode, !- Program Line 104
  Set loads_clg_foundation_walls = -hr_foundation_walls * clg_mode, !- Program Line 105
  Set loads_clg_floors = -hr_floors * clg_mode, !- Program Line 106
  Set loads_clg_slabs = -hr_slabs * clg_mode, !- Program Line 107
  Set loads_clg_ceilings = -hr_ceilings * clg_mode, !- Program Line 108
  Set loads_clg_roofs = -hr_roofs * clg_mode, !- Program Line 109
  Set loads_clg_windows = -hr_windows * clg_mode, !- Program Line 110
  Set loads_clg_doors = -hr_doors * clg_mode, !- Program Line 111
  Set loads_clg_skylights = -hr_skylights * clg_mode, !- Program Line 112
  Set loads_clg_internal_mass = -hr_internal_mass * clg_mode, !- Program Line 113
  Set loads_clg_intgains = -hr_intgains * clg_mode, !- Program Line 114
  Set loads_clg_infil = -hr_infil * clg_mode, !- Program Line 115
  Set loads_clg_mechvent = -hr_mechvent * clg_mode, !- Program Line 116
  Set loads_clg_natvent = -hr_natvent * clg_mode, !- Program Line 117
  Set loads_clg_whf = -hr_whf * clg_mode, !- Program Line 118
  Set loads_clg_ducts = -hr_ducts * clg_mode, !- Program Line 119
  Set loads_htg_tot = 0,                  !- Program Line 120
  Set loads_clg_tot = 0,                  !- Program Line 121
  If htg_load_liv > 0,                    !- Program Line 122
  Set loads_htg_tot = htg_load_tot - clg_load_tot, !- Program Line 123
  ElseIf clg_load_liv > 0,                !- Program Line 124
  Set loads_clg_tot = clg_load_tot - htg_load_tot, !- Program Line 125
  EndIf;                                  !- Program Line 126

OS:EnergyManagementSystem:Sensor,
  {e6277668-920d-4b13-aa73-a738a4e15c82}, !- Handle
  dhw_rtf,                                !- Name
  water heater,                           !- Output Variable or Output Meter Index Key Name
  Water Heater Runtime Fraction;          !- Output Variable or Output Meter Name

OS:EnergyManagementSystem:Sensor,
  {7c99fd26-8306-4513-aaf5-4513c763e730}, !- Handle
  dhw_loss,                               !- Name
  water heater,                           !- Output Variable or Output Meter Index Key Name
  Water Heater Heat Loss Energy;          !- Output Variable or Output Meter Name

OS:EnergyManagementSystem:Sensor,
  {0c5bbc32-df50-458d-869d-1270715a0ded}, !- Handle
  ig_ppl_rad,                             !- Name
  occupants,                              !- Output Variable or Output Meter Index Key Name
  People Radiant Heating Energy;          !- Output Variable or Output Meter Name

OS:EnergyManagementSystem:Sensor,
  {ce22036d-36ce-45b2-9042-7621adc91669}, !- Handle
  ig_ppl_conv,                            !- Name
  occupants,                              !- Output Variable or Output Meter Index Key Name
  People Convective Heating Energy;       !- Output Variable or Output Meter Name

OS:EnergyManagementSystem:Sensor,
  {49de369c-1220-4533-8df3-fd7850c1d6f8}, !- Handle
  ig_lgt_vis,                             !- Name
  interior lighting,                      !- Output Variable or Output Meter Index Key Name
  Lights Visible Radiation Heating Energy; !- Output Variable or Output Meter Name

OS:EnergyManagementSystem:Sensor,
  {c34cf2f8-4946-47b2-b9c5-3e205616e1b6}, !- Handle
  ig_lgt_rad,                             !- Name
  interior lighting,                      !- Output Variable or Output Meter Index Key Name
  Lights Radiant Heating Energy;          !- Output Variable or Output Meter Name

OS:EnergyManagementSystem:Sensor,
  {4e4e9bdd-d8cb-46bb-9ea1-a97665bac483}, !- Handle
  ig_lgt_conv,                            !- Name
  interior lighting,                      !- Output Variable or Output Meter Index Key Name
  Lights Convective Heating Energy;       !- Output Variable or Output Meter Name

OS:EnergyManagementSystem:Sensor,
  {d7a011b0-95f3-46d6-bb41-c495b3a2c951}, !- Handle
  ig_oe_rad_4,                            !- Name
  water sensible,                         !- Output Variable or Output Meter Index Key Name
  Other Equipment Radiant Heating Energy; !- Output Variable or Output Meter Name

OS:EnergyManagementSystem:Sensor,
  {8f68e2b7-1bf2-4a39-8532-19ef09a7d6f2}, !- Handle
  ig_oe_conv_4,                           !- Name
  water sensible,                         !- Output Variable or Output Meter Index Key Name
  Other Equipment Convective Heating Energy; !- Output Variable or Output Meter Name

OS:EnergyManagementSystem:Sensor,
  {8c8172e3-b8c9-44f8-aea4-1c0e5f1d2274}, !- Handle
  ig_oe_rad_3,                            !- Name
  water latent,                           !- Output Variable or Output Meter Index Key Name
  Other Equipment Radiant Heating Energy; !- Output Variable or Output Meter Name

OS:EnergyManagementSystem:Sensor,
  {b6d3d6a0-9627-4c50-bbeb-d8dfd41d7729}, !- Handle
  ig_oe_conv_3,                           !- Name
  water latent,                           !- Output Variable or Output Meter Index Key Name
  Other Equipment Convective Heating Energy; !- Output Variable or Output Meter Name

OS:EnergyManagementSystem:Sensor,
  {3315b802-c256-4775-ad63-5a84ecfcd5a5}, !- Handle
  ig_oe_rad_2,                            !- Name
  water heater EC adjustment,             !- Output Variable or Output Meter Index Key Name
  Other Equipment Radiant Heating Energy; !- Output Variable or Output Meter Name

OS:EnergyManagementSystem:Sensor,
  {3e5ac4f0-42ff-4d6c-baf8-e9bb2e8e137c}, !- Handle
  ig_oe_conv_2,                           !- Name
  water heater EC adjustment,             !- Output Variable or Output Meter Index Key Name
  Other Equipment Convective Heating Energy; !- Output Variable or Output Meter Name

OS:EnergyManagementSystem:Sensor,
  {bee2bb0c-6a45-4c6b-8c15-fc2158059411}, !- Handle
  ig_oe_rad_1,                            !- Name
  cooking range 1,                        !- Output Variable or Output Meter Index Key Name
  Other Equipment Radiant Heating Energy; !- Output Variable or Output Meter Name

OS:EnergyManagementSystem:Sensor,
  {fb4a5d5b-4a7d-404a-a05d-f2b06817e817}, !- Handle
  ig_oe_conv_1,                           !- Name
  cooking range 1,                        !- Output Variable or Output Meter Index Key Name
  Other Equipment Convective Heating Energy; !- Output Variable or Output Meter Name

OS:EnergyManagementSystem:Sensor,
  {fa23b4ec-6c13-4ee7-858c-aedc0eeefd5f}, !- Handle
  ig_oe_rad,                              !- Name
  clothes dryer 1,                        !- Output Variable or Output Meter Index Key Name
  Other Equipment Radiant Heating Energy; !- Output Variable or Output Meter Name

OS:EnergyManagementSystem:Sensor,
  {d642c124-7ccd-402a-8ef5-de7fe4354ca9}, !- Handle
  ig_oe_conv,                             !- Name
  clothes dryer 1,                        !- Output Variable or Output Meter Index Key Name
  Other Equipment Convective Heating Energy; !- Output Variable or Output Meter Name

OS:EnergyManagementSystem:Sensor,
  {b6f513ed-3986-4d7f-8e0f-802192f915cf}, !- Handle
  ig_ee_rad_8,                            !- Name
  whole house fan,                        !- Output Variable or Output Meter Index Key Name
  Electric Equipment Radiant Heating Energy; !- Output Variable or Output Meter Name

OS:EnergyManagementSystem:Sensor,
  {a152cc86-7350-45d1-b2c2-7cf54dcffd5f}, !- Handle
  ig_ee_conv_8,                           !- Name
  whole house fan,                        !- Output Variable or Output Meter Index Key Name
  Electric Equipment Convective Heating Energy; !- Output Variable or Output Meter Name

OS:EnergyManagementSystem:Sensor,
  {33b2418c-2db0-4916-8683-78644a96eeac}, !- Handle
  ig_ee_rad_7,                            !- Name
  misc tv,                                !- Output Variable or Output Meter Index Key Name
  Electric Equipment Radiant Heating Energy; !- Output Variable or Output Meter Name

OS:EnergyManagementSystem:Sensor,
  {e8c9b21d-59a2-4d77-8afa-a426777994b8}, !- Handle
  ig_ee_conv_7,                           !- Name
  misc tv,                                !- Output Variable or Output Meter Index Key Name
  Electric Equipment Convective Heating Energy; !- Output Variable or Output Meter Name

OS:EnergyManagementSystem:Sensor,
  {747dce44-fed1-4859-b07a-800630d3f8bd}, !- Handle
  ig_ee_rad_6,                            !- Name
  misc plug loads,                        !- Output Variable or Output Meter Index Key Name
  Electric Equipment Radiant Heating Energy; !- Output Variable or Output Meter Name

OS:EnergyManagementSystem:Sensor,
  {38e23d5b-85aa-4e54-9f6b-6123afad4efd}, !- Handle
  ig_ee_conv_6,                           !- Name
  misc plug loads,                        !- Output Variable or Output Meter Index Key Name
  Electric Equipment Convective Heating Energy; !- Output Variable or Output Meter Name

OS:EnergyManagementSystem:Sensor,
  {f23f91b0-105c-4c5f-aaae-1d41e2c9db43}, !- Handle
  ig_ee_rad_5,                            !- Name
  fridge,                                 !- Output Variable or Output Meter Index Key Name
  Electric Equipment Radiant Heating Energy; !- Output Variable or Output Meter Name

OS:EnergyManagementSystem:Sensor,
  {9e9befa1-6a62-4e3b-8ee7-dd609897fde2}, !- Handle
  ig_ee_conv_5,                           !- Name
  fridge,                                 !- Output Variable or Output Meter Index Key Name
  Electric Equipment Convective Heating Energy; !- Output Variable or Output Meter Name

OS:EnergyManagementSystem:Sensor,
  {05767cb2-213f-46de-8380-d2b30e869761}, !- Handle
  ig_ee_rad_4,                            !- Name
  dishwasher,                             !- Output Variable or Output Meter Index Key Name
  Electric Equipment Radiant Heating Energy; !- Output Variable or Output Meter Name

OS:EnergyManagementSystem:Sensor,
  {b794b91c-ec28-47c1-aac4-d8c63b38aa5e}, !- Handle
  ig_ee_conv_4,                           !- Name
  dishwasher,                             !- Output Variable or Output Meter Index Key Name
  Electric Equipment Convective Heating Energy; !- Output Variable or Output Meter Name

OS:EnergyManagementSystem:Sensor,
  {2a1f6a5d-0543-43f9-bbcc-800eab27566b}, !- Handle
  ig_ee_rad_3,                            !- Name
  cooking range,                          !- Output Variable or Output Meter Index Key Name
  Electric Equipment Radiant Heating Energy; !- Output Variable or Output Meter Name

OS:EnergyManagementSystem:Sensor,
  {f4862e9f-9c4f-4a2b-88a1-b585ab987c59}, !- Handle
  ig_ee_conv_3,                           !- Name
  cooking range,                          !- Output Variable or Output Meter Index Key Name
  Electric Equipment Convective Heating Energy; !- Output Variable or Output Meter Name

OS:EnergyManagementSystem:Sensor,
  {30455aa6-ac45-4864-8512-4dfdc4e1b167}, !- Handle
  ig_ee_conv_2,                           !- Name
  clothes washer,                         !- Output Variable or Output Meter Index Key Name
  Electric Equipment Convective Heating Energy; !- Output Variable or Output Meter Name

OS:EnergyManagementSystem:Sensor,
  {b272e80e-6445-4985-b515-05c106b1b0aa}, !- Handle
  ig_ee_rad_1,                            !- Name
  clothes dryer,                          !- Output Variable or Output Meter Index Key Name
  Electric Equipment Radiant Heating Energy; !- Output Variable or Output Meter Name

OS:EnergyManagementSystem:Sensor,
  {fb297012-fe3c-42ec-b83a-896fbc790326}, !- Handle
  ig_ee_conv_1,                           !- Name
  clothes dryer,                          !- Output Variable or Output Meter Index Key Name
  Electric Equipment Convective Heating Energy; !- Output Variable or Output Meter Name

OS:EnergyManagementSystem:Sensor,
  {d6a4a3c9-3f86-489c-9919-3500dfaaa6c8}, !- Handle
  ig_ee_rad,                              !- Name
  ceiling fan,                            !- Output Variable or Output Meter Index Key Name
  Electric Equipment Radiant Heating Energy; !- Output Variable or Output Meter Name

OS:EnergyManagementSystem:Sensor,
  {bd0288d6-fcb3-4142-b8d4-81855480d9a4}, !- Handle
  ig_ee_conv,                             !- Name
  ceiling fan,                            !- Output Variable or Output Meter Index Key Name
  Electric Equipment Convective Heating Energy; !- Output Variable or Output Meter Name

OS:AdditionalProperties,
  {2a91f3d0-4ffc-4b91-ae44-5d29472c8f17}, !- Handle
  {dc77156b-e79e-4d9b-9204-a777830b01c2}; !- Object Name

OS:AdditionalProperties,
  {e7e4c310-d03a-4864-9ed1-136c0bafa872}, !- Handle
  {87d72392-89a2-4cd7-b19a-e1021a813da9}; !- Object Name

OS:AdditionalProperties,
  {ee959359-9fef-47a9-8079-616b65749593}, !- Handle
  {e211e254-8b8b-437c-bb3b-8866ffaa0300}; !- Object Name

OS:AdditionalProperties,
  {18f8345d-64e5-4d1f-9f58-bcaf20e45abc}, !- Handle
  {9f1ddc75-baf4-430b-8ecd-b3af46ea184c}; !- Object Name

OS:AdditionalProperties,
  {9640ddb1-e0cc-40b5-8462-17ae48e71c87}, !- Handle
  {226cff68-4b2d-4d41-badb-94c23013913b}; !- Object Name

OS:EnergyManagementSystem:Sensor,
  {bc21c1c4-ccd6-4ca2-a3d0-eb481155536b}, !- Handle
  ducts_rad_5,                            !- Name
  central_ac_and_furnace_airloop_0_SupSensLkToLv equip, !- Output Variable or Output Meter Index Key Name
  Other Equipment Radiant Heating Energy; !- Output Variable or Output Meter Name

OS:EnergyManagementSystem:Sensor,
  {4a416908-a18f-4e7a-84eb-92c751396517}, !- Handle
  ducts_rad_4,                            !- Name
  central_ac_and_furnace_airloop_0_SupLatLkToLv equip, !- Output Variable or Output Meter Index Key Name
  Other Equipment Radiant Heating Energy; !- Output Variable or Output Meter Name

OS:EnergyManagementSystem:Sensor,
  {dfe9bcb3-5494-4e5e-b6ae-118265c854fb}, !- Handle
  ducts_conv_4,                           !- Name
  central_ac_and_furnace_airloop_0_SupLatLkToLv equip, !- Output Variable or Output Meter Index Key Name
  Other Equipment Convective Heating Energy; !- Output Variable or Output Meter Name

OS:EnergyManagementSystem:Sensor,
  {7c00cd2c-65b3-47aa-b3df-4c6aabb43a80}, !- Handle
  ducts_rad_3,                            !- Name
  central_ac_and_furnace_airloop_0_SupCondToLv equip, !- Output Variable or Output Meter Index Key Name
  Other Equipment Radiant Heating Energy; !- Output Variable or Output Meter Name

OS:EnergyManagementSystem:Sensor,
  {fc490080-237b-4aa8-a525-12d2c4a8fa3b}, !- Handle
  ducts_conv_3,                           !- Name
  central_ac_and_furnace_airloop_0_SupCondToLv equip, !- Output Variable or Output Meter Index Key Name
  Other Equipment Convective Heating Energy; !- Output Variable or Output Meter Name

OS:EnergyManagementSystem:Sensor,
  {475308c0-e89f-4b00-98ce-5749c5e4e6ed}, !- Handle
  ducts_rad_2,                            !- Name
  central_ac_and_furnace_airloop_0_RetSensLkToRP equip, !- Output Variable or Output Meter Index Key Name
  Other Equipment Radiant Heating Energy; !- Output Variable or Output Meter Name

OS:EnergyManagementSystem:Sensor,
  {284f0d33-971b-4f70-b1c3-fc6f21b4ec5b}, !- Handle
  ducts_conv_2,                           !- Name
  central_ac_and_furnace_airloop_0_RetSensLkToRP equip, !- Output Variable or Output Meter Index Key Name
  Other Equipment Convective Heating Energy; !- Output Variable or Output Meter Name

OS:EnergyManagementSystem:Sensor,
  {359bc624-f528-41c2-9c56-642a307c978f}, !- Handle
  ducts_rad_1,                            !- Name
  central_ac_and_furnace_airloop_0_RetLatLkToRP equip, !- Output Variable or Output Meter Index Key Name
  Other Equipment Radiant Heating Energy; !- Output Variable or Output Meter Name

OS:EnergyManagementSystem:Sensor,
  {eed3d81c-e4cc-4ba5-adea-f169cbfb7e30}, !- Handle
  ducts_conv_1,                           !- Name
  central_ac_and_furnace_airloop_0_RetLatLkToRP equip, !- Output Variable or Output Meter Index Key Name
  Other Equipment Convective Heating Energy; !- Output Variable or Output Meter Name

OS:EnergyManagementSystem:Sensor,
  {0a5cadb9-95b0-4c52-8caf-bc72e8b83165}, !- Handle
  ducts_rad,                              !- Name
  central_ac_and_furnace_airloop_0_RetCondToRP equip, !- Output Variable or Output Meter Index Key Name
  Other Equipment Radiant Heating Energy; !- Output Variable or Output Meter Name

OS:EnergyManagementSystem:Sensor,
  {45deb4dc-626c-41ad-9616-1a1cb9c0820e}, !- Handle
  ducts_conv,                             !- Name
  central_ac_and_furnace_airloop_0_RetCondToRP equip, !- Output Variable or Output Meter Index Key Name
  Other Equipment Convective Heating Energy; !- Output Variable or Output Meter Name

OS:EnergyManagementSystem:Sensor,
  {ad4f3600-b6b6-4a84-aee0-f90d25da14f1}, !- Handle
  duct_mix_loss,                          !- Name
  living space,                           !- Output Variable or Output Meter Index Key Name
  Zone Mixing Sensible Heat Loss Energy;  !- Output Variable or Output Meter Name

OS:EnergyManagementSystem:Sensor,
  {2bfe0e98-6256-478d-962a-17ccad0ecf61}, !- Handle
  duct_mix_gain,                          !- Name
  living space,                           !- Output Variable or Output Meter Index Key Name
  Zone Mixing Sensible Heat Gain Energy;  !- Output Variable or Output Meter Name

OS:EnergyManagementSystem:Sensor,
  {6c3a8115-047f-42b8-b619-96fc076692fd}, !- Handle
  mv_rad_5,                               !- Name
  mech vent house fan sensible load equip, !- Output Variable or Output Meter Index Key Name
  Other Equipment Radiant Heating Energy; !- Output Variable or Output Meter Name

OS:EnergyManagementSystem:Sensor,
  {4f06099f-5e17-4354-ae6c-9859bade4ad1}, !- Handle
  mv_conv_5,                              !- Name
  mech vent house fan sensible load equip, !- Output Variable or Output Meter Index Key Name
  Other Equipment Convective Heating Energy; !- Output Variable or Output Meter Name

OS:EnergyManagementSystem:Sensor,
  {7de25a66-106d-42b1-97b2-cd037b4e7ef6}, !- Handle
  mv_rad_4,                               !- Name
  mech vent house fan latent load equip,  !- Output Variable or Output Meter Index Key Name
  Other Equipment Radiant Heating Energy; !- Output Variable or Output Meter Name

OS:EnergyManagementSystem:Sensor,
  {0519c330-1365-48dc-883e-ed8cb57518e6}, !- Handle
  mv_conv_4,                              !- Name
  mech vent house fan latent load equip,  !- Output Variable or Output Meter Index Key Name
  Other Equipment Convective Heating Energy; !- Output Variable or Output Meter Name

OS:EnergyManagementSystem:Sensor,
  {caf7d43c-ac4d-477e-95ae-510409876eb6}, !- Handle
  mv_rad_3,                               !- Name
  mech vent range fan 0,                  !- Output Variable or Output Meter Index Key Name
  Electric Equipment Radiant Heating Energy; !- Output Variable or Output Meter Name

OS:EnergyManagementSystem:Sensor,
  {2cdccfa6-3b7a-407d-aed6-ee17f4759687}, !- Handle
  mv_conv_3,                              !- Name
  mech vent range fan 0,                  !- Output Variable or Output Meter Index Key Name
  Electric Equipment Convective Heating Energy; !- Output Variable or Output Meter Name

OS:EnergyManagementSystem:Sensor,
  {40a85623-1b32-4a8e-b59b-3e03c85f3713}, !- Handle
  mv_rad_2,                               !- Name
  mech vent house fan cfis,               !- Output Variable or Output Meter Index Key Name
  Electric Equipment Radiant Heating Energy; !- Output Variable or Output Meter Name

OS:EnergyManagementSystem:Sensor,
  {1f3fd1b0-bca0-4b20-af00-d193cf6bb562}, !- Handle
  mv_conv_2,                              !- Name
  mech vent house fan cfis,               !- Output Variable or Output Meter Index Key Name
  Electric Equipment Convective Heating Energy; !- Output Variable or Output Meter Name

OS:EnergyManagementSystem:Sensor,
  {515488fd-403f-41f0-a31f-26580d02a79d}, !- Handle
  mv_conv_1,                              !- Name
  mech vent house fan,                    !- Output Variable or Output Meter Index Key Name
  Electric Equipment Convective Heating Energy; !- Output Variable or Output Meter Name

OS:EnergyManagementSystem:Sensor,
  {bd164f0d-8776-479b-943e-f8b44aa78a48}, !- Handle
  mv_rad,                                 !- Name
  mech vent bath fan 0,                   !- Output Variable or Output Meter Index Key Name
  Electric Equipment Radiant Heating Energy; !- Output Variable or Output Meter Name

OS:EnergyManagementSystem:Sensor,
  {afeb6536-6e0f-4880-b47e-864576f5c48c}, !- Handle
  mv_conv,                                !- Name